35
 energy: -44.233642480651 gnorm: 0.080045159585 xtb: 6.4.1 (025e99ea0bd20707e8cccc6e19fe66a0758c6dd1)
C         0.72597222722664    1.20540593076128    0.00796401275629
O         2.11604729500831    0.97666684384936    0.19781953900755
C         2.74238546820051    0.42211999736716   -0.88423654633824
C         2.13247671250890    0.06301575058023   -2.08703524311186
C         2.96469949499377   -0.31587688200009   -3.14502317460954
C         4.34245624284923   -0.55018815150822   -3.03654232012098
C         4.91503386255067   -0.22787370706877   -1.79892120657438
C         4.12093193801065    0.27495833056058   -0.75468151944442
C         5.12140309117844   -1.06636730540099   -4.22878734554462
C         5.46344102695931   -2.58011368934334   -4.23918426971105
C         4.26388268387665   -3.45510434693695   -3.83905434370085
C         4.70682916095434   -4.91383737970543   -3.77791710767585
C         5.42307225303105   -5.34498713028641   -5.04301137043254
C         5.55449143506094   -4.27461374925520   -6.10737478191688
C         6.15429567228240   -2.99781215455487   -5.54677392416586
H         0.21225855913145    0.24277138743428   -0.08297201218792
H         0.53917105175728    1.76865444059028   -0.91173606898686
H         0.37991413295121    1.85166443948278    0.82135168520850
H         1.06135732145913    0.06230855737817   -2.26916727903857
H         2.45916463877629   -0.45222305807042   -4.09939068113081
H         5.96254523492874   -0.50692321091384   -1.74499724178612
H         4.54097834283564    0.48973724024709    0.22344097946043
H         6.06866087894394   -0.52799377957965   -4.37731999423511
H         4.50437921878857   -1.00930959731022   -5.13580919253367
H         6.18317271021925   -2.74902318271279   -3.42055669550589
H         3.47964612597617   -3.39254682177871   -4.60139444265101
H         3.86361052606241   -3.10909658020261   -2.87463918934018
H         3.78677545139318   -5.46749403218418   -3.55089539388998
H         5.40142450177965   -4.95881546435576   -2.92893599644339
H         4.97819249895663   -6.19326259431991   -5.57893312527739
H         6.46574732784501   -5.54366283409959   -4.77033130585428
H         4.56346512217376   -4.11568141185350   -6.54609810476646
H         6.22137020158182   -4.61539554976128   -6.90995931477325
H         5.97275091934971   -2.22081079457186   -6.29617749235964
H         7.24406693889273   -3.07990090865222   -5.41978577413207
