35
 energy: -44.220252640520 gnorm: 0.102801114857 xtb: 6.4.1 (025e99ea0bd20707e8cccc6e19fe66a0758c6dd1)
C         0.91268712614093    1.12446516845839    0.41445273043842
O         2.19800067654418    1.40584758131419   -0.12356993313791
C         2.74925758479813    0.72233505580904   -1.17218498303118
C         2.11902953450061   -0.26467320571060   -1.93132696146673
C         2.78800493222585   -0.89931157633415   -2.98261136524019
C         4.14153700858158   -0.64620341272421   -3.24485305633101
C         4.77190013936749    0.26511133643541   -2.38719024021045
C         4.10453595569594    0.97127674800079   -1.37238488634374
C         4.88287409186852   -1.42767700640661   -4.30991910278575
C         5.34299597540588   -2.78182913520813   -3.70735288194545
C         4.25040956627707   -3.85931570280292   -3.60770113649132
C         4.64961496564640   -5.16115232115317   -4.29595826373415
C         5.05203654827654   -4.88113210040283   -5.73088101952472
C         6.11585491351935   -3.81363647410101   -5.88767140179694
C         6.54469555835262   -3.23282546500625   -4.55237554051441
H         0.79039766083778    0.05586663325170    0.61934004241146
H         0.08013341648167    1.49879682693263   -0.18946939068317
H         0.85800110336039    1.71598266007931    1.33430177493388
H         1.04748665471791   -0.35460140147625   -1.77583386108136
H         2.23100565151870   -1.50143130141351   -3.69827661093888
H         5.84505859266388    0.40561610438408   -2.46871227239930
H         4.52168622582420    1.80177929499570   -0.81065207379598
H         5.75350156965089   -0.80591243357012   -4.56412755975073
H         4.08215749451711   -1.50677003402251   -5.05775592047282
H         5.78906789010922   -2.65362412486195   -2.70671381281668
H         3.28262367456607   -3.49644649807828   -3.97077035673258
H         4.08653161014107   -4.18042321142743   -2.56843709405679
H         3.78841457393911   -5.84144845271669   -4.28573893614827
H         5.48581382208494   -5.74246829079427   -3.88596087566956
H         4.12101167322530   -4.70158077687540   -6.28374211496500
H         5.42741474343950   -5.75136200485105   -6.28114358289803
H         5.80036590530706   -3.04533516195539   -6.60184965391695
H         6.99391860940405   -4.21305659668757   -6.41156945511098
H         7.25596870162083   -2.40367500665589   -4.62234235827113
H         6.93865563428364   -4.15335735011444   -4.09643422926358
