35
 energy: -44.224254451114 gnorm: 0.110249359423 xtb: 6.4.1 (025e99ea0bd20707e8cccc6e19fe66a0758c6dd1)
C         0.92480384276639    0.93056590569060    0.13689729380678
O         2.22257141176682    0.35947762555235    0.23854817125305
C         2.82785296224556    0.22351552787375   -0.98039220461966
C         2.33439453818293    0.61393636242331   -2.22608061441786
C         2.98640510580486    0.22764844556198   -3.40130685758804
C         4.24886346320903   -0.37029767650047   -3.28493301458220
C         4.86279246553904   -0.59548417192435   -2.04565096487643
C         4.08065615093811   -0.37870298777939   -0.89885404634932
C         4.95694118372532   -0.95420499976475   -4.49005770847275
C         5.32345985201930   -2.45715390892612   -4.36622385135603
C         4.05775460659755   -3.28586643800879   -4.09076311840287
C         4.42452942107705   -4.70056553558045   -3.65264885713937
C         5.71596016244903   -5.09652615003822   -4.34169138285208
C         5.85396675626114   -4.50792277658625   -5.73105810887228
C         5.93733797102349   -2.99350903693826   -5.66892093748231
H         0.33240299850941    0.46200601827542   -0.65578752971312
H         1.00070888817647    2.01040338047883   -0.02490893596883
H         0.54806207871115    0.71852676706169    1.14293447987587
H         1.39468093996043    1.15045860078547   -2.32381277165113
H         2.58633048955040    0.32930159290445   -4.40857050082710
H         5.84251027790693   -1.03775224011735   -1.89528985595982
H         4.52668832615427   -0.62242453749740    0.06080615228455
H         5.82729703580771   -0.37813654849721   -4.83622407408808
H         4.21196333560625   -0.91777434495824   -5.29649648322843
H         6.03053996740080   -2.44635403167260   -3.51969192735665
H         3.31585586304708   -3.06069823406002   -4.86470651818291
H         3.60604367510619   -2.75307226004265   -3.24098469576697
H         3.57585737525136   -5.38493374224659   -3.77901852292583
H         4.57276559214782   -4.60412401176694   -2.56914541274722
H         5.74191775094339   -6.19205407815903   -4.27967405399374
H         6.57518413011379   -4.72078976554971   -3.77463397164659
H         4.98567098131336   -4.76062367660988   -6.34918066844779
H         6.72786992349410   -4.98913688707395   -6.18901846972608
H         5.36641684415029   -2.46455371199062   -6.43869405586953
H         6.98101970423554   -2.64784656072478   -5.71029560381025
