35
 energy: -44.214502017909 gnorm: 0.102611679018 xtb: 6.4.1 (025e99ea0bd20707e8cccc6e19fe66a0758c6dd1)
C         0.93181215721647    1.02899640424155    0.42242494434982
O         2.30362859536498    1.24651864137505    0.11996979409157
C         2.76569260180497    0.67433833008873   -1.03318831191597
C         2.06251847063277   -0.24000072630308   -1.81880873836031
C         2.69734608012388   -0.89275291163612   -2.88012928997907
C         4.02672842127452   -0.60834120596064   -3.22179588432755
C         4.70099612785239    0.31181169248680   -2.40808866893349
C         4.12703445436523    0.86787067060744   -1.25256244427600
C         4.82795318627007   -1.23309853350947   -4.34534581507136
C         5.49734723506302   -2.58996557542088   -3.99987571726828
C         4.31178112204510   -3.56005542867052   -3.86566878194949
C         4.71132298884834   -5.03036262134064   -3.94569665075199
C         5.27841085007882   -5.31984783502434   -5.32191154553641
C         5.79178448751736   -4.06311431897829   -5.99489596148169
C         6.47588529727697   -3.05450249071701   -5.08992689150513
H         0.77913251810044   -0.03366265504472    0.63755515736740
H         0.35658716590315    1.49264251432443   -0.38512709555679
H         0.68418463293351    1.54693592105329    1.35485458550915
H         0.99933526187580   -0.44858551648385   -1.73754888971666
H         2.18484709841328   -1.63150438284222   -3.49377751711642
H         5.72494730487236    0.65174851438309   -2.52650923695901
H         4.72437935026562    1.63996479038444   -0.77680796793251
H         5.58424086208493   -0.49027819704103   -4.63766792778449
H         4.27211257619820   -1.44485974903424   -5.26885058491466
H         5.97168958025203   -2.62168299867560   -3.00454232809705
H         3.69140384366613   -3.41754272180390   -4.75725445525075
H         3.83735854165406   -3.28270040060574   -2.91276103708135
H         3.81803038057524   -5.64027950589614   -3.75967760473013
H         5.51752798017124   -5.19092106040110   -3.21802286234740
H         4.56941470243214   -5.85387560078572   -5.96754316921445
H         5.89014194755408   -6.21294361947081   -5.15114050754980
H         4.98617013861976   -3.51466617598376   -6.49495690787756
H         6.49923160820197   -4.39453405296658   -6.76605158001991
H         6.96069422867402   -2.31321217042157   -5.73315645801405
H         7.36233809362582   -3.60330377965965   -4.73852320619018
