35
 energy: -44.223378722517 gnorm: 0.097267004259 xtb: 6.4.1 (025e99ea0bd20707e8cccc6e19fe66a0758c6dd1)
C         0.81258395244717    1.16079589158265    0.17184307842021
O         2.23047079873315    1.12442535396856    0.07724152418248
C         2.72432374350442    0.46709752435400   -1.01578018718904
C         2.01637107184098   -0.06685025828573   -2.09344989583129
C         2.73203925812934   -0.78356029250611   -3.05762757352166
C         4.12280134871658   -0.67860003372417   -3.19779762934170
C         4.78785444206446   -0.08398839043316   -2.11725188813584
C         4.11666689620145    0.48105166145687   -1.01993176847542
C         4.87356694881586   -1.15642693205357   -4.42363602235018
C         5.62927517950365   -2.48202132786568   -4.14038572155881
C         4.62837659052275   -3.51516015360891   -3.59680590806480
C         5.25249435852315   -4.90572449845538   -3.66499108991154
C         5.28200417212775   -5.27515813486837   -5.13536713995145
C         5.29861819288887   -4.04360629751352   -6.01788835572404
C         6.25050982132058   -3.01040966502240   -5.44285113226673
H         0.42663392240360    0.15687423253862    0.37683145110120
H         0.31854942840547    1.64439670712716   -0.67671566499223
H         0.58711485504248    1.85989407181086    0.98389676488241
H         0.93261539855983   -0.14245957259475   -2.07841057495132
H         2.17480127190521   -1.29223951265842   -3.84229589251220
H         5.86930759008946   -0.01235267699028   -2.05908064133863
H         4.63786714885108    0.73134363286606   -0.10069469707507
H         5.55921376155866   -0.31806539128544   -4.61401380266053
H         4.15459516525066   -1.15967318387714   -5.25413689470229
H         6.44312730528054   -2.26215900212677   -3.42904860473568
H         3.77087572133515   -3.55363647033115   -4.27747813760916
H         4.07841475086343   -3.26093545453543   -2.67868416194959
H         4.58198149216871   -5.61183352974087   -3.15863557418740
H         6.19900878194999   -5.07286068494279   -3.13449077605089
H         4.40812359491632   -5.90015817968402   -5.35988677675698
H         6.06031352078717   -5.98799768019459   -5.43048085497010
H         4.28504983562628   -3.64253206537638   -6.12600607632856
H         5.63897281091614   -4.28939805953243   -7.03215981924837
H         6.39951488663662   -2.12402056251236   -6.06767684440713
H         7.21682817389920   -3.48599080170910   -5.21809038549366
