35
 energy: -44.221562263708 gnorm: 0.102856435307 xtb: 6.4.1 (025e99ea0bd20707e8cccc6e19fe66a0758c6dd1)
C         0.85867374404281    0.94794193098923    0.20933069513272
O         2.26107985897913    0.74409391393929    0.09807219190810
C         2.76809811130427    0.35929424402769   -1.11251807189690
C         2.04087872813334    0.16901560336217   -2.28836467947870
C         2.77532377315770   -0.17925532561022   -3.42625337331155
C         4.15250095079899   -0.42409135759026   -3.33502916006126
C         4.84111628927325   -0.37658070472699   -2.11560741155389
C         4.12316738952529    0.06298108476767   -0.99079219932701
C         4.88266900009072   -0.96874905385600   -4.54533901358154
C         5.59391270001532   -2.30896322382740   -4.21901930020609
C         4.80320909878790   -3.29363055298359   -3.34159642707067
C         5.30847912323479   -4.72450796766047   -3.50013168811286
C         5.32705605983820   -5.36619148285028   -4.87390566179757
C         5.00591199413078   -4.25549200292641   -5.85321807561043
C         5.88539327048102   -3.06219473256053   -5.52639232839650
H         0.54653352558807    0.98991956908829    1.25796920179060
H         0.28332347920060    0.18238370774109   -0.32065466380228
H         0.61633858284971    1.94889175789691   -0.16266242650869
H         0.99250015196068    0.42668732405995   -2.41074508322672
H         2.34735007567087   -0.22200821961655   -4.42624527590531
H         5.90396849210061   -0.54804034151745   -1.97775504297778
H         4.48497487549443    0.01192470614913    0.03184222684905
H         5.64229050647339   -0.21201369927442   -4.78933101183501
H         4.18102934305583   -1.13224894325520   -5.37457495539082
H         6.61420771471423   -2.20441885818315   -3.81310825139271
H         3.73352560915608   -3.19768088520750   -3.55763749721516
H         4.97539885427224   -2.94385824036010   -2.31298290224460
H         4.74753638781860   -5.44593592650919   -2.89230085402518
H         6.32094742371603   -4.72149347599826   -3.07568676121285
H         4.59515767665521   -6.17783977842974   -4.97516368232485
H         6.29123982821550   -5.78724603681036   -5.18059848412290
H         3.93918316689433   -4.00969216198630   -5.89249711010397
H         5.24597685750001   -4.61698211869879   -6.86153112982343
H         5.77857140422322   -2.40650850993097   -6.39642680334932
H         6.86414338194056   -3.55405417607789   -5.62929264805468
