35
 energy: -44.221832203263 gnorm: 0.094227768508 xtb: 6.4.1 (025e99ea0bd20707e8cccc6e19fe66a0758c6dd1)
C         0.80695297699498    0.85840142533476    0.37744191699196
O         2.15875302994261    1.08970490749893    0.00352925679187
C         2.75037571743921    0.50099813416038   -1.08001768533545
C         2.07153506253216    0.07006445857691   -2.22069325424109
C         2.79950510732771   -0.44376921368157   -3.29843505623827
C         4.20037113375775   -0.49063809866413   -3.31459643949791
C         4.86551932436747   -0.20856533069999   -2.11399218582883
C         4.12331712402807    0.27581047591212   -1.02385898671516
C         4.91335977876562   -1.13864653579440   -4.48351883453537
C         5.57309741879062   -2.48345700558342   -4.07761585832614
C         4.55382715244950   -3.45257526039368   -3.45588378470069
C         5.22907314874364   -4.80742942316115   -3.64628980462727
C         5.11265410360716   -5.21520235822479   -5.10214886754076
C         5.23398667323994   -4.01263717293205   -6.01590760728125
C         6.21270045433480   -3.06308586357610   -5.34902500216776
H         0.57960714341455   -0.20705463977424    0.48677442034886
H         0.09543584928889    1.29978274497450   -0.32748198229823
H         0.80717159436622    1.32365988491922    1.36867361863719
H         1.01339505723538    0.30893772440965   -2.28191911466334
H         2.33872387456651   -0.67057378100638   -4.25823370259520
H         5.91240560633822   -0.49240905685450   -2.07502642690821
H         4.62712509728402    0.50733832952553   -0.09012189903696
H         5.75690667108587   -0.63639659279453   -4.97887622600538
H         4.24040133329086   -1.40695520718342   -5.30923068033375
H         6.41846947299247   -2.27485315375054   -3.40047056630722
H         3.60148844901633   -3.39831958630697   -3.99459536675622
H         4.39742413811361   -3.09235359669907   -2.42835557675299
H         4.63053104265706   -5.42489152863123   -2.96433579352592
H         6.28753404271631   -4.77868892110833   -3.35630848876895
H         4.18801533413425   -5.74355432914058   -5.36783426038087
H         5.96246851194562   -5.89146743706623   -5.24870527285033
H         4.25125871039000   -3.61180878595974   -6.28693002579567
H         5.56411108407968   -4.31787340425804   -7.01733168082256
H         6.48344913561619   -2.27101669280969   -6.05444466596022
H         7.11769804206639   -3.65267337072780   -5.13966429005370
