35
 energy: -44.230140694689 gnorm: 0.082979787909 xtb: 6.4.1 (025e99ea0bd20707e8cccc6e19fe66a0758c6dd1)
C         0.58296411762282    0.83547640168901   -0.24922582708803
O         1.99158990746777    0.96717961687796   -0.11101214296906
C         2.78356506258065    0.43828711944673   -1.09270208646957
C         2.32781533882902    0.20538439282087   -2.39105402096439
C         3.14021311703989   -0.33321288305601   -3.39375819538040
C         4.51213752021231   -0.51052690632801   -3.16733670149218
C         4.96802408417407   -0.26817649837939   -1.86469651002373
C         4.11936749782905    0.14968302186286   -0.82592326399729
C         5.42239142449590   -1.04465746325934   -4.25397817885825
C         5.76880511821207   -2.52790753983137   -3.95650055338880
C         4.60370329761866   -3.34798608867438   -3.37800098351446
C         4.67976878454490   -4.84226738498244   -3.67662926672441
C         4.57982009971300   -5.12361205603439   -5.16330784819009
C         5.24247844568156   -4.02874612579661   -5.97447500732564
C         6.30006226631346   -3.27143405241952   -5.19200734334317
H         0.22652445872564   -0.15181964211047   -0.56072806606079
H         0.13618642004560    1.53950016735299   -0.95826181033680
H         0.25017030464677    0.95496880818667    0.78710211980328
H         1.28548096385166    0.39286201774865   -2.63366588327994
H         2.72650705343673   -0.65985644071270   -4.34618897023982
H         6.02055896022542   -0.41527649945833   -1.64426870255669
H         4.55671152702216    0.37480558245290    0.14224129097247
H         6.33886153123612   -0.43769539283253   -4.22423068334452
H         4.86639065423786   -0.90686680627621   -5.19128258474328
H         6.50002054126820   -2.48108237772354   -3.13198455466320
H         3.60007475374444   -2.99496312445883   -3.63916641395550
H         4.60184951731798   -3.18708380740250   -2.28981773363009
H         3.93740358899373   -5.45485427469811   -3.14917823234709
H         5.65968599751346   -5.08803548471834   -3.24696085976296
H         3.52338898890038   -4.98344129361482   -5.42599940126783
H         4.96433000023972   -6.11781827491507   -5.41767745061763
H         4.47171371121629   -3.28394520527484   -6.20044869858432
H         5.66698449747826   -4.45359711683238   -6.89333174517984
H         6.64482682400498   -2.55889853173156   -5.94813289683564
H         7.20848482345025   -3.85093962749117   -4.96972888386475
