35
 energy: -44.214670903584 gnorm: 0.103274133729 xtb: 6.4.1 (025e99ea0bd20707e8cccc6e19fe66a0758c6dd1)
C         1.05062359324930    0.86391081812048    0.53424182076621
O         2.22281143705687    1.39984454158514   -0.06527972315774
C         2.79997508036686    0.72598875733758   -1.10617721635706
C         2.07802310279888   -0.13508245721586   -1.93383110429606
C         2.62496280478017   -0.82130950757925   -3.02261126645045
C         3.97715673168590   -0.60688953224394   -3.32340882546718
C         4.68864817370923    0.28322163093961   -2.50798268359511
C         4.13340957179845    0.97639051005526   -1.41935903340815
C         4.73994177270155   -1.27798705746236   -4.44698988908929
C         5.29821982508016   -2.64422233454987   -3.96714307928033
C         4.22244787613621   -3.71856040142121   -3.73656713847779
C         4.77270584085486   -5.11870864128248   -3.99081599953730
C         5.41648253867682   -5.23902314422881   -5.35845401921312
C         5.92679615535502   -3.95809836389338   -5.98666685758722
C         6.46549483926593   -3.09846296055099   -4.85746737838375
H         0.94473190765690   -0.22085584170532    0.63866690431122
H         0.11546101288111    1.25750583193666    0.12369862716824
H         1.22817279436456    1.35240485333125    1.49801338733546
H         1.07927957580141   -0.41618902832101   -1.61140313615851
H         1.94274564588620   -1.46022949774903   -3.58058446717864
H         5.73680688433461    0.56009437620353   -2.56053072138501
H         4.64562102793699    1.66194593782736   -0.75081901116724
H         5.69093255583496   -0.78807981130286   -4.70157335465461
H         4.16115444546673   -1.35643401165829   -5.37731992082416
H         5.78119979065032   -2.39698694945682   -3.00677843891522
H         3.35944185931439   -3.44719386160406   -4.35437266379648
H         3.90962640206796   -3.55112790141776   -2.69534437148633
H         3.88470611520619   -5.76231222290738   -3.94833902536535
H         5.56871371343488   -5.31977465006231   -3.26198229430461
H         4.71322734166482   -5.77945217863311   -6.00503732651048
H         6.32819848849768   -5.82080390477160   -5.18152765416772
H         5.05282578652306   -3.44139039468982   -6.39783527267767
H         6.60131374547741   -4.20662543308209   -6.81628229506748
H         7.00930927362701   -2.23874051648816   -5.26174265670403
H         7.01876425238975   -3.82271150791413   -4.24116958592660
