35
 energy: -44.224909287785 gnorm: 0.094799725847 xtb: 6.4.1 (025e99ea0bd20707e8cccc6e19fe66a0758c6dd1)
C         1.37121003447799    1.87072345175140    0.32870813231318
O         2.43970212677647    0.93867750613652    0.43014969009931
C         2.84020514174492    0.36823292671682   -0.74664995593743
C         1.99499648638804    0.16730430453092   -1.83885839864653
C         2.54996792127640   -0.42152581415081   -2.97937523727921
C         3.91688422118906   -0.72055879943410   -3.06305697770577
C         4.76347925427990   -0.51536905412789   -1.96550890380745
C         4.18512455071390    0.01139342406458   -0.79850351101227
C         4.42156619972619   -1.22979502835811   -4.39745642740454
C         4.99668996970277   -2.67094725260864   -4.36848946466883
C         4.02066134535768   -3.84113414140282   -4.16188938123629
C         4.76692481649688   -5.16801703646197   -4.26344732140615
C         6.19449945488866   -5.10077641731138   -4.77026791894239
C         6.09200432224316   -4.25765502596026   -6.02505105451818
C         5.85632312684638   -2.80977921861426   -5.63470405270253
H         1.44628884309767    2.70460149972052    1.03429082070744
H         0.45695792523129    1.31870168670370    0.56830541063251
H         1.22750726643315    2.28472850682881   -0.67476339110280
H         1.02461428033753    0.65351980368451   -1.88807421195280
H         1.85189061560571   -0.49995490327346   -3.81094607831672
H         5.83655169772914   -0.67425831060880   -2.00192629059165
H         4.71104496255828    0.11636789160334    0.14578493637593
H         5.18857659868735   -0.53011659357721   -4.75987946542103
H         3.71024071512901   -1.23816047264139   -5.23448016692486
H         5.71205130297102   -2.70271065783045   -3.52947547717696
H         3.22691705933622   -3.76775235968275   -4.91334661331115
H         3.49333076681851   -3.67127783421739   -3.21156992969508
H         4.19998067628549   -5.87992376041917   -4.87691006123054
H         4.74212418970097   -5.57244260795934   -3.24311427368273
H         6.54398059505046   -6.10827982129879   -5.03007786815709
H         6.92865790992723   -4.59804873863085   -4.13052265096892
H         5.23594702954213   -4.66231808839307   -6.57576378691049
H         6.94124529670758   -4.26137086460007   -6.72059215150320
H         5.25534945047865   -2.28129215169071   -6.38158247835806
H         6.84510028136150   -2.33368271720392   -5.55648750220254
