35
 energy: -44.223276000061 gnorm: 0.093347852020 xtb: 6.4.1 (025e99ea0bd20707e8cccc6e19fe66a0758c6dd1)
C         2.19317504438491    2.26801882499094    0.64134833708044
O         1.94529467565022    0.93897605342201    0.20217182243788
C         2.60809717213719    0.41489491852374   -0.87332754540502
C         1.77757283551497   -0.14389695862563   -1.84577303564966
C         2.34579145489104   -0.79462783830343   -2.94539559655264
C         3.73355164443503   -0.75394127153885   -3.13865653568694
C         4.57690748135938   -0.16282587264721   -2.18851376627387
C         3.99037304145433    0.30624029115403   -1.00115167568842
C         4.37187001904822   -1.28956547409431   -4.40368764203544
C         5.06974782782514   -2.67036709014335   -4.28170553688008
C         4.12917738838623   -3.86444047057458   -4.04896353175494
C         4.42581812900820   -5.16371584780773   -4.79174826902449
C         5.93316820736852   -5.32707038783007   -4.76789866587975
C         6.63330140652995   -4.22215711163617   -5.53263378642189
C         5.84086973403253   -2.92851803790467   -5.58565030403888
H         1.82286839324634    2.36469068197848    1.66719622685170
H         1.59281211423343    2.91346421300704   -0.00746319591951
H         3.24989816659183    2.55448955747289    0.62471918069539
H         0.71964310967060    0.04814780405288   -1.68965500318736
H         1.69746191861270   -1.31739931883304   -3.64636057236671
H         5.62982422787458   -0.29272977420023   -2.41774682195479
H         4.65505541992272    0.80399482600019   -0.30134431442045
H         5.07315787728169   -0.58608160297991   -4.87539846876776
H         3.53108037970125   -1.48365509975881   -5.08344103659311
H         5.74096353161235   -2.61968571325448   -3.40786567884445
H         3.14051694358678   -3.49121315819957   -4.33767575760376
H         4.07259263357863   -3.99150992726956   -2.95777734956162
H         4.01259000764346   -5.22619838902696   -5.80659398440328
H         4.01930063412679   -6.01518043776704   -4.23049411938568
H         6.18764905319731   -6.19052019999749   -5.39590766850800
H         6.36751546316809   -5.47288680452102   -3.77236976227201
H         6.79826013800835   -4.54959540335624   -6.56483705034210
H         7.62566094491281   -4.03747077937094   -5.10122335241409
H         5.15004896303938   -2.97169714299044   -6.43370546013793
H         6.49327571672110   -2.10158427409538   -5.90347565267837
