35
 energy: -44.230705625567 gnorm: 0.089939240630 xtb: 6.4.1 (025e99ea0bd20707e8cccc6e19fe66a0758c6dd1)
C         0.77291189933787    0.99234402604853    0.15774210913874
O         2.17593843662211    0.77039573448512    0.10360463220017
C         2.73785887774264    0.27261511393986   -1.03969189330677
C         2.08690910805427    0.13495701997818   -2.26646973924931
C         2.80418295259557   -0.27854446145721   -3.39342474621643
C         4.18045088094338   -0.54017372571386   -3.34525603592767
C         4.80712737696630   -0.36552803342869   -2.10420278016631
C         4.11591775072834    0.08660504932472   -0.96768205583457
C         4.87057617257994   -1.07823982748810   -4.58172651981660
C         5.66601513822468   -2.36229363774858   -4.22534353086539
C         4.81505011630494   -3.30333747780811   -3.35646617730262
C         5.30167483961349   -4.74015606987965   -3.51953094107206
C         5.16461120690080   -5.22444893148357   -4.94992660435190
C         5.09697666809557   -4.07288041543840   -5.93234971695022
C         6.16517061588763   -3.09301392264368   -5.48170117673600
H         0.05674554027923    0.17044024432184    0.05568197243321
H         0.42274066691802    1.75902112152412   -0.54052584677466
H         0.61935951999283    1.27075315956693    1.20555687872953
H         1.01844187736560    0.32731559254108   -2.30942640191684
H         2.18117053259618   -0.36595585797544   -4.28178721148512
H         5.87504251264720   -0.55940164402779   -2.10937707084759
H         4.49056624561262    0.14273225577650    0.05005111867157
H         5.66869225478693   -0.39001073179229   -4.89566401778852
H         4.14588087573337   -1.29547319914227   -5.37814917832036
H         6.52022207049928   -2.04669806189973   -3.60290865908233
H         3.76289429861734   -3.26908114358993   -3.65961216452253
H         4.75532178967529   -3.03514788965033   -2.29131706268599
H         4.78683892189700   -5.42154746452059   -2.83016665343840
H         6.30944947983166   -4.86746293007407   -3.10307220315068
H         4.20263953188123   -5.74977870890434   -5.00772373316102
H         5.95105879182062   -5.90138468618656   -5.30242617094209
H         4.10398355725191   -3.62847916529180   -6.06018948364256
H         5.35892206119353   -4.43179399366579   -6.93612614239713
H         6.44646404661565   -2.36077268958317   -6.24524037163046
H         7.11059776480624   -3.61726954335700   -5.27727632673895
