35
 energy: -44.219236953933 gnorm: 0.099601904378 xtb: 6.4.1 (025e99ea0bd20707e8cccc6e19fe66a0758c6dd1)
C         1.22841678613096    1.15252663312755    0.55565123644081
O         2.38677443084754    1.54976272924371   -0.16621192775905
C         2.72593843141024    0.73616975020243   -1.21201367947470
C         1.96613521187024   -0.26526950741191   -1.81822131417594
C         2.61030601668883   -1.02122019037430   -2.80263757067959
C         3.92812274110181   -0.87596872273627   -3.25776897256004
C         4.57844293465772    0.23558088648013   -2.70552007037197
C         4.00359570157339    1.01684962833954   -1.68913223036580
C         4.57132581694072   -1.71934456752853   -4.33927454082854
C         5.24204200158779   -2.90468055630008   -3.59520157975743
C         4.31664727607726   -4.13186743200207   -3.54714111331580
C         4.60034265146808   -5.07152065304558   -4.71522080388407
C         5.11076448226013   -4.31771435693179   -5.92790517816273
C         6.48297147298308   -3.75622511755996   -5.61546725153904
C         6.61003355933808   -3.29933501907279   -4.17346606425520
H         1.44742544336093    0.35386209181867    1.27189596676223
H         0.34790168105786    0.81138091831107    0.00220336254215
H         1.01012237630412    2.10590962077913    1.04800700377020
H         0.89632518857179   -0.45158403350174   -1.78268653558022
H         1.91488682753955   -1.62237497176309   -3.38571405192966
H         5.58701816577531    0.47405711280767   -3.02795080760765
H         4.57620468453887    1.85578114313705   -1.30493770057323
H         5.33959523657338   -1.13212047009384   -4.86285383500967
H         3.71461170765913   -1.95509813841604   -4.98512581026418
H         5.43195421891529   -2.52929378736883   -2.57553822988030
H         3.28342554250576   -3.77497612365423   -3.61914316068256
H         4.40645799451329   -4.64074746176262   -2.57605362187837
H         3.59439154351289   -5.45639277729919   -4.92619282348306
H         5.24663311183525   -5.90515664722939   -4.41089480661041
H         4.37602685107970   -3.59818564769290   -6.31149406737170
H         5.25328466971261   -5.09181325667961   -6.69043822952593
H         6.72245933691771   -2.84067693327510   -6.16709020375048
H         7.23054705307663   -4.48018614834918   -5.96477032201512
H         7.32412049763991   -2.47275910207436   -4.10172055574242
H         7.07301131793183   -4.08545658360309   -3.55854293919928
