35
 energy: -44.226092376023 gnorm: 0.089745132237 xtb: 6.4.1 (025e99ea0bd20707e8cccc6e19fe66a0758c6dd1)
C         0.78975779122388    0.91274210958142    0.28020386353455
O         2.19180614017887    1.02077847084371    0.07220398260828
C         2.71711060371003    0.46347327572493   -1.06099203129034
C         2.05834194665852    0.12192251336743   -2.24295487138378
C         2.79132912561139   -0.41983744185190   -3.30348245889140
C         4.18197344119145   -0.58762414513808   -3.25019544458770
C         4.78752746974266   -0.30034586701345   -2.01966172721316
C         4.05847301021608    0.12754693704413   -0.89749339404458
C         4.91072464494523   -1.04270813933774   -4.49778012198799
C         5.69429549138638   -2.37013652206089   -4.31756699309997
C         4.80703006504657   -3.30897817686243   -3.48330729669277
C         5.21732061150989   -4.77471773647509   -3.58871419616995
C         5.10831135988779   -5.30229912689947   -5.00615295225087
C         5.14376640497201   -4.13561245685534   -5.97229207343991
C         6.20634783521990   -3.13905222484090   -5.54561987666252
H         0.43407489092863   -0.04395325982095   -0.11610409874703
H         0.27907633084922    1.74188937130193   -0.21950711867094
H         0.74464297047792    0.82393470159144    1.37065499445710
H         0.98405941820927    0.23790028434585   -2.35668927980432
H         2.36781617445151   -0.54980067722669   -4.29782617918636
H         5.87122831262696   -0.32467865753036   -1.96437267815735
H         4.49562291442446    0.39264817519973    0.06058482175087
H         5.60710856857114   -0.26457477404943   -4.84240050320493
H         4.20149086426626   -1.29928975224174   -5.29641394396906
H         6.55752419722014   -2.14781300422384   -3.66787193281055
H         3.76400292807850   -3.28803504372523   -3.81761049284491
H         4.86013783442521   -2.97733711837379   -2.43582004689582
H         4.45564114844809   -5.23941805343437   -2.94959653308588
H         6.22150153740420   -4.98128163940144   -3.19602263263471
H         4.14384400703144   -5.78886376093592   -5.20046962210419
H         5.86264404883797   -6.07154718044510   -5.20674554968121
H         4.20345430995157   -3.57386595258985   -5.98346453873663
H         5.40041244379893   -4.44004377072017   -6.99525631646739
H         6.41292709574246   -2.42281524300473   -6.34725876798133
H         7.19602892010876   -3.50345595866932   -5.23223953826400
