35
 energy: -44.217324034333 gnorm: 0.102748653965 xtb: 6.4.1 (025e99ea0bd20707e8cccc6e19fe66a0758c6dd1)
C         1.04079881907419    1.04805358618928    0.46516777369633
O         2.39863608184876    1.20377203912834    0.07439276409285
C         2.86426543870040    0.57809083499580   -1.04916382678010
C         2.18319016859224   -0.42061455097423   -1.74658283698675
C         2.66008267310210   -0.98382565335000   -2.93437896504630
C         3.94523204057524   -0.61206912592318   -3.35279468751054
C         4.66076508465270    0.30761606771261   -2.57457275718775
C         4.09857929469277    1.02990928140645   -1.50868621812595
C         4.72659700330488   -1.31385013046908   -4.44440797117446
C         5.30833730991218   -2.63496575925322   -3.87453263006282
C         4.16725148447076   -3.65939411575256   -3.75997904249233
C         4.70695715460710   -5.03665469686745   -4.13376038240035
C         5.28756216212739   -5.17267496813774   -5.52794619544926
C         5.96181758894700   -3.88339341333364   -5.95099742502081
C         6.47385002239712   -3.06711167944195   -4.77806618969020
H         0.95448326357646    0.14794992292252    1.08258123012749
H         0.27602749065427    0.97220881622860   -0.31416795913499
H         0.88455836371549    1.90546460473435    1.12807126263602
H         1.30714825789335   -0.77954758512525   -1.21349093235961
H         2.01890316033849   -1.64698015261591   -3.51238246195727
H         5.63370018174350    0.72152144424754   -2.81979946440204
H         4.66255904072308    1.77218669695763   -0.95169100669638
H         5.54692527825826   -0.59447574786156   -4.58140197032666
H         4.10470479543282   -1.48587577085971   -5.33340737227201
H         5.71692935833614   -2.31028575928341   -2.90276585586601
H         3.32022558808118   -3.51948288004748   -4.44047505953237
H         3.83626113580526   -3.82271759934069   -2.72373264445462
H         3.86191451372307   -5.66678504219611   -3.82812651644882
H         5.44841103921433   -5.22628500254072   -3.34665103284197
H         4.52711374043477   -5.52833935684785   -6.23499812233955
H         5.97018635169606   -6.02919603860840   -5.56527763681031
H         5.34329514328672   -3.20750718041711   -6.55139611023217
H         6.88234198673810   -4.12575931353037   -6.49771038687202
H         6.95652963264129   -2.15619541158884   -5.14623363875589
H         7.14584102701736   -3.67629989360183   -4.15534331254002
