35
 energy: -44.212846739683 gnorm: 0.085538104921 xtb: 6.4.1 (025e99ea0bd20707e8cccc6e19fe66a0758c6dd1)
C         2.40055371656850    1.82498518580373    0.61008523838559
O         1.47749393845498    1.21834330190832   -0.28468940341006
C         2.09305365335488    0.61334476646197   -1.34569369257991
C         1.48569197864722    0.41819532138810   -2.58694215884839
C         2.11530432207595   -0.40855826871380   -3.52265560311999
C         3.34574814193275   -1.03165787025712   -3.27237892466737
C         3.91009304397548   -0.91730570054244   -1.99492983707891
C         3.25429947687995   -0.09965211077718   -1.05938087309065
C         4.09591323828966   -1.76939242263800   -4.36217127981143
C         5.37235812552814   -2.55096162729683   -3.95184923536953
C         5.13650026419139   -3.86315097499791   -3.18557056458539
C         5.80492218104486   -5.03602787173917   -3.89649483952559
C         5.48632525220728   -5.00149894055506   -5.37860870692965
C         6.24010521526052   -3.84963196234041   -6.01174208716714
C         6.47814744633753   -2.74164826115022   -5.00180705739567
H         2.58239491926938    1.19021349945978    1.48348952127038
H         1.99870289503148    2.79054353440047    0.93289291671862
H         3.29599819797222    2.07870989515645    0.03318947289866
H         0.48562434530716    0.77117937855621   -2.82302755781259
H         1.63463287027599   -0.59759318390249   -4.48087993139666
H         4.67978440275056   -1.61734446534255   -1.68577383371754
H         3.48934553044702   -0.20576838002855   -0.00449448894944
H         4.34737682958644   -0.88954044714478   -4.97195148229785
H         3.46073569974587   -2.42137065498728   -4.97709935697985
H         5.82459100776318   -1.76182744506301   -3.32779163828177
H         4.07154492309138   -4.11939278721989   -3.16787586537644
H         5.41130545735993   -3.64960407002872   -2.14205938249972
H         5.41679060148273   -5.95842569903189   -3.44581812632209
H         6.89612508892087   -4.98487783326305   -3.78734114802777
H         4.40267678248622   -4.88925475644300   -5.51205765763896
H         5.76205124424004   -5.94040944789307   -5.87198483064775
H         5.71023951767024   -3.46242765683550   -6.88877456172652
H         7.17189187277170   -4.21096438782985   -6.46584995756174
H         6.63964911435288   -1.83307941134815   -5.59063230454244
H         7.40216519816060   -2.82563145317930   -4.41053386859801
