35
 energy: -44.224595031276 gnorm: 0.089276648281 xtb: 6.4.1 (025e99ea0bd20707e8cccc6e19fe66a0758c6dd1)
C         1.24576259971960    2.10471772596248    0.23266474019452
O         2.31633143558515    1.17834828580201    0.36071713248259
C         2.72428839233776    0.52670692037499   -0.77047770211808
C         1.98320619045416    0.38254801748429   -1.94422582306564
C         2.57334002820184   -0.32604512570797   -2.99547777762799
C         3.86693548677634   -0.84451569420686   -2.84487035220562
C         4.60008496743599   -0.70561707214977   -1.65885316419327
C         3.99842702190509   -0.00782572343982   -0.59820741086462
C         4.55110516069524   -1.30465094471915   -4.11563183080825
C         5.06010108586284   -2.76272894911673   -4.26879132906133
C         4.08411127259207   -3.94790266600693   -4.35516239272113
C         4.81005638421292   -5.28941357025226   -4.38971069193232
C         6.15222887223029   -5.25226848154109   -5.09437445468666
C         6.28050687649975   -4.14127494319947   -6.11666490057752
C         5.87017233254231   -2.78409337223055   -5.57449841384460
H         1.31632844041703    2.65101787137932    1.17892737477309
H         0.27013920775108    1.60898373031430    0.21269962000553
H         1.45455032141749    2.75844636879694   -0.62059507922405
H         0.93843319381054    0.66773191229708   -1.85711172165374
H         2.15842783767779   -0.41014451146684   -3.99834779839851
H         5.48618391017174   -1.32451290163614   -1.55959030763260
H         4.48627748409231    0.11826785583518    0.36376708097783
H         5.47192991154359   -0.70687557462476   -4.17849450252713
H         3.90408007677004   -1.10618610883800   -4.98086758794154
H         5.78320158426647   -3.01998926390532   -3.47655524501042
H         3.50126695126760   -3.88323983657118   -5.28048074971303
H         3.42832286366031   -3.90329760842050   -3.47312627458991
H         4.15503044804362   -6.02035769264264   -4.88086757800027
H         4.98088064857231   -5.60575319801140   -3.35240507114573
H         6.35289576731227   -6.23414831474455   -5.54197491798869
H         6.94716923721672   -5.14766077280876   -4.34729694450922
H         5.58016966213594   -4.50839636956122   -6.87470212839323
H         7.28457051022921   -4.08215212044806   -6.55639455235369
H         5.34197178548975   -2.28984390174146   -6.39609257223720
H         6.74107939349935   -2.12073443707359   -5.46521995872593
