35
 energy: -44.220275127703 gnorm: 0.096820515755 xtb: 6.4.1 (025e99ea0bd20707e8cccc6e19fe66a0758c6dd1)
C         1.11004658149331    0.84182271123671    0.46253570348582
O         2.39184564821196    1.29411498247858    0.04648493295939
C         2.82352983283154    0.69267226115430   -1.10355094147700
C         2.05230067484630   -0.15064743772846   -1.90460445218222
C         2.65248710915999   -0.82096071522053   -2.97509462274107
C         3.99883304013607   -0.59137949238526   -3.29057618370910
C         4.66451051759311    0.41604337383363   -2.57965396214577
C         4.09995647553697    1.09559539843245   -1.48724276140270
C         4.68847148459177   -1.35598130028174   -4.40162533118814
C         5.41516117633630   -2.59370285879196   -3.81129185029341
C         4.30241419311101   -3.65423881179477   -3.76993380878124
C         4.66822452362612   -5.09848490523532   -4.09883718387079
C         5.44316628934861   -5.31315322277872   -5.38442675384640
C         5.88837690486361   -3.95364598541970   -5.88379358283138
C         6.48929719883572   -3.08237406867850   -4.79565718966690
H         0.97324361423586   -0.24447969442716    0.45426591238709
H         0.27557056639711    1.23309340792568   -0.12784453438887
H         1.01431081891886    1.20368096144802    1.49156390660876
H         1.00795726038677   -0.39854811004090   -1.73619597180163
H         2.02877054565877   -1.42781528288654   -3.62906578839135
H         5.70667071157321    0.70015617688340   -2.68566593607217
H         4.53152170465447    1.85205202153860   -0.83853835217683
H         5.41700288439534   -0.76896602856311   -4.97943186291636
H         3.89944974483536   -1.63718504951378   -5.11228123780111
H         5.75648171566039   -2.35385166332654   -2.79018122158077
H         3.51089702185728   -3.33160049808980   -4.45514030293690
H         3.81943348387099   -3.69954166618413   -2.78265823727681
H         3.73706681728898   -5.67434333073912   -4.02198813603522
H         5.31236028096720   -5.56191804523829   -3.34017158287618
H         4.81544494720227   -5.81753416748445   -6.13025995620489
H         6.31338825121834   -5.95324988570925   -5.20006904794866
H         4.96478178512990   -3.48703786086090   -6.24312589350086
H         6.64224496404240   -4.09387476171225   -6.66929997869042
H         6.91770862560070   -2.17738210401937   -5.23809194884826
H         7.14587742506646   -3.73743937760727   -4.20383135460461
