35
 energy: -44.219573969204 gnorm: 0.097729585875 xtb: 6.4.1 (025e99ea0bd20707e8cccc6e19fe66a0758c6dd1)
C         1.33720296005986    1.81422026811861    0.29742378946416
O         2.55902393541524    1.08779855831957    0.28557579029032
C         2.96376611772309    0.43071218494774   -0.84362230178724
C         2.09619296247261   -0.45246665226478   -1.48781264890246
C         2.48469094555303   -0.92862198965385   -2.74393296486121
C         3.82540257504352   -0.82005607949915   -3.13838103981497
C         4.78258947818173   -0.20129145151548   -2.32329741261592
C         4.31959289057234    0.43731230893315   -1.16067372672023
C         4.34154912219873   -1.38652486168991   -4.44503829818607
C         5.27600844914965   -2.56232944106836   -4.05414758799443
C         4.49497566061507   -3.83231291117579   -3.67760727064099
C         4.01841156396169   -4.52420793214118   -4.95118857960400
C         5.25104351554351   -5.18681241325528   -5.53508201575822
C         6.47997302589853   -4.33394733299694   -5.29384962868896
C         6.20159917690168   -2.84240161586795   -5.24846088532085
H         1.61006402592219    2.79349173597460    0.70413079404924
H         0.56270336422989    1.33967118333337    0.90811629833292
H         0.90639791841949    2.06275691205873   -0.67809777175966
H         1.06772666462800   -0.43920396011735   -1.13774051412779
H         1.84907785396845   -1.40763560089995   -3.48657356015922
H         5.79791924826815   -0.20415760043622   -2.70690362853909
H         5.06909697035236    0.93645086072610   -0.55371663465409
H         4.94835093683115   -0.60264478688797   -4.92098883313581
H         3.60951116489160   -1.71919173213400   -5.19344717474066
H         5.94144154113934   -2.32608304743869   -3.20675059362100
H         3.62115564376961   -3.43172430406553   -3.15218344145820
H         5.03936310025974   -4.55934111562479   -3.05703650722799
H         3.48640014376792   -3.76323910570517   -5.53639253623675
H         3.26823378156779   -5.31339624884116   -4.81093973277544
H         5.18576148309744   -5.34971343618625   -6.61855001250099
H         5.45498502763346   -6.16342309300278   -5.08160962964962
H         7.23392337448092   -4.52239342026359   -6.06580671359317
H         6.96834197967406   -4.58067927356994   -4.34220863898620
H         5.64976362501416   -2.58520387951221   -6.15819830424146
H         7.12374712702538   -2.25180980111529   -5.35481142004149
