35
 energy: -44.228098306119 gnorm: 0.076910253833 xtb: 6.4.1 (025e99ea0bd20707e8cccc6e19fe66a0758c6dd1)
C         2.54017855014793    1.26584075759068    1.22461326003780
O         1.97888155176240    1.21033339770433   -0.08020089491602
C         2.48106582594593    0.58284958360767   -1.18688155676086
C         1.61884990543822    0.27531330720131   -2.24029239921282
C         2.04126039697605   -0.48134873872370   -3.33780084158885
C         3.40042188599958   -0.76077278303860   -3.53651116048061
C         4.28630853434810   -0.29981122810340   -2.55357827552289
C         3.83016797827330    0.28511533858101   -1.36040135813277
C         3.89195000389569   -1.49456403580999   -4.76720114756899
C         4.91727589397926   -2.62029528681987   -4.46726423391250
C         4.12240693110574   -3.91836155934970   -4.24849466300714
C         5.02297985561269   -5.01738707762231   -3.69265950189608
C         6.43371252178399   -4.80006016430744   -4.20447990810304
C         6.50282240685111   -4.20713051123889   -5.59713848124067
C         5.96893125837859   -2.78630355771793   -5.57541815549570
H         2.99724545174657    0.31450011517674    1.51595014737731
H         1.68354301978270    1.44208380521095    1.88272096959739
H         3.27450719147298    2.06284774439221    1.38128831471682
H         0.55523340151258    0.48354070903275   -2.16393391921059
H         1.38156968215939   -0.85427837170045   -4.11927685485651
H         5.32155166874951   -0.60470707861412   -2.66919259948708
H         4.47901163811201    0.43947613015875   -0.50339072057829
H         4.38142853416109   -0.67203642442925   -5.30855540476901
H         3.13310803846677   -1.84893607366997   -5.47800491579679
H         5.51169579395202   -2.39398615504723   -3.56607369753306
H         3.69804295308393   -4.24661243786067   -5.20362262706259
H         3.30748509219982   -3.57350720916737   -3.59503185412973
H         4.58107390752496   -5.97124747297114   -4.00800511572850
H         5.10560550698196   -4.97352716842128   -2.59881127030617
H         6.97004823943884   -5.75115996506808   -4.09287993567012
H         6.97241705031419   -4.16354294281860   -3.49339550890564
H         5.93679751763794   -4.74296505209453   -6.36679292713211
H         7.56722341937680   -4.16575469286806   -5.86235534511393
H         5.53647407085938   -2.53781980167833   -6.54985744329076
H         6.76657205415888   -2.05649968245038   -5.37140483524990
