35
 energy: -44.220912080404 gnorm: 0.106795609924 xtb: 6.4.1 (025e99ea0bd20707e8cccc6e19fe66a0758c6dd1)
C         1.04456713652468    0.65675458993683    0.50082963447109
O         2.39730838986800    0.33878652043217    0.20139220540539
C         3.02385216464247    0.17211764741358   -1.00290487483705
C         2.24698829531676    0.08580425457529   -2.15906307419812
C         2.89320337864093   -0.16351580691393   -3.37386282349224
C         4.28078095262541   -0.35248055822211   -3.43554208368977
C         5.03892149746042   -0.10227815522706   -2.28399554438088
C         4.41423271329983    0.10858242538702   -1.04336014558272
C         4.94249078867017   -0.88681235427103   -4.68904795366729
C         5.24658844648641   -2.39370745299023   -4.47616778263049
C         4.06363518763433   -3.13568240545397   -3.83215877781011
C         4.28887380456528   -4.63131821442579   -3.63170304916208
C         5.58767467580686   -5.03833401184813   -4.30014317894732
C         5.84528045381055   -4.53709479931349   -5.70664172675003
C         5.62955441078451   -3.03861238222771   -5.81742747861050
H         1.01849736508331    0.79357520717293    1.58684843714208
H         0.37215945593466   -0.10017024419401    0.08498771104882
H         0.83290486675987    1.62657581642218    0.03860497184148
H         1.16171487453814    0.04265403695525   -2.13097403728564
H         2.20085968223244   -0.23810360067814   -4.21056466566804
H         6.12350085931343   -0.06944912236764   -2.25818164803339
H         4.95051611261664    0.40927844582422   -0.14822071471175
H         5.88288336301761   -0.41886087174191   -5.01445314294408
H         4.15355196493246   -0.84041207829483   -5.45199305591180
H         6.12272577217329   -2.29073658812191   -3.81399286868319
H         3.21085263676889   -2.89825928966780   -4.47752304566981
H         3.79074306392718   -2.71851934226316   -2.85157699385581
H         3.42875317703034   -5.13956751577478   -4.08606912458737
H         4.25816024826331   -4.89945855227948   -2.56755452585599
H         5.78075744469970   -6.10623542923364   -4.13580513290617
H         6.30562220801243   -4.47383563591179   -3.69442815531126
H         5.26351343091118   -5.08829705579162   -6.45336389706630
H         6.90209592618645   -4.73399322581235   -5.92884326958563
H         4.76369294120433   -2.87403904355926   -6.46665382975101
H         6.49455327034127   -2.47316965417065   -6.19494233320921
