35
 energy: -44.223479292239 gnorm: 0.096471752193 xtb: 6.4.1 (025e99ea0bd20707e8cccc6e19fe66a0758c6dd1)
C         1.08753186129054    1.94204178914272    0.10155638255423
O         2.29346859155018    1.22063211280106    0.31593934052586
C         2.84521577485954    0.45935381826710   -0.67738712349961
C         2.07122586007223   -0.07405865351718   -1.70892964706945
C         2.70395935326565   -0.86055462351889   -2.67669266021928
C         4.09030280662741   -0.81643445817402   -2.87914946279313
C         4.78557373638913   -0.45971433754067   -1.71605581591873
C         4.21145505327462    0.19789882263371   -0.61523471120485
C         4.75185490327282   -1.17512964350965   -4.19381059272360
C         5.14316501796588   -2.65164898435321   -4.46820664676223
C         3.98016163564655   -3.65122281140750   -4.35450469622257
C         4.59741261121626   -5.04480042617004   -4.28533766564168
C         5.95781519255053   -5.19295192984862   -4.93857095142567
C         6.07644696239539   -4.30395560153895   -6.15982100303518
C         5.88533320737749   -2.84158429962437   -5.80036798072346
H         1.02868438868909    2.73713649356780    0.85202139893346
H         0.19685983026478    1.30706947243837    0.14035443102448
H         1.18797449332956    2.51618602302786   -0.82541472977895
H         0.98530574982473   -0.10506134811658   -1.72583126399676
H         2.10933696316932   -1.30602816502066   -3.47227461220437
H         5.83029133873513   -0.73701639943530   -1.61743943934728
H         4.86346196356947    0.40649786882558    0.22777536920551
H         5.61915890320346   -0.52138392803457   -4.36587344985164
H         4.04615081027733   -0.87543281708726   -4.98046567289404
H         5.77241138009317   -2.79029654041644   -3.57292953920306
H         3.32227651802063   -3.50214454375263   -5.21767657757269
H         3.33045772191610   -3.45598201041836   -3.48859383312804
H         3.94588540234492   -5.80530404601695   -4.73447007377653
H         4.73443659694851   -5.32942584974254   -3.23392554753080
H         6.22814679658268   -6.22701375032852   -5.18824747324176
H         6.69196536391348   -4.86989225832245   -4.19180877868236
H         5.37811729030980   -4.64157706952294   -6.93326667841757
H         7.05552897665103   -4.43694387750894   -6.63806151692884
H         5.30046694799901   -2.34166968702070   -6.57902847344479
H         6.88501882011584   -2.38817593341165   -5.72610155846057
