35
 energy: -44.222618980793 gnorm: 0.089718703216 xtb: 6.4.1 (025e99ea0bd20707e8cccc6e19fe66a0758c6dd1)
C         2.55453742297152    1.91415563001269    0.77982279027655
O         1.71689960228073    1.19041996966251   -0.11194229334849
C         2.45781444991961    0.52791262768812   -1.05151469434706
C         1.93170507871748   -0.65991667544163   -1.56135755987707
C         2.53872109278488   -1.34521320575843   -2.61842571767742
C         3.71390966026131   -0.83941908011004   -3.19112779897160
C         4.30519678490119    0.32679488355819   -2.68737955237525
C         3.63045251798218    0.98614980312886   -1.64630043791439
C         4.24471805046854   -1.46964297034571   -4.46223269305508
C         5.13531237158137   -2.67146145679419   -4.04871090021944
C         4.34332624882888   -3.96169789417468   -3.77908011737676
C         4.19058802436249   -4.72339506181006   -5.09221753169366
C         5.55796145019149   -5.18334712294639   -5.55922051608207
C         6.68225526579570   -4.38223747440541   -4.93469957996473
C         6.27242221217603   -2.92524542538279   -5.05076767320641
H         2.03465283255178    2.18530521987522    1.70450342207595
H         2.95246710876507    2.81301497815641    0.29847505631917
H         3.38161971489450    1.24137060237470    1.02942439510645
H         0.97792617539573   -0.99973921216396   -1.16728169423150
H         2.02961609365178   -2.28097291041307   -2.84234308083814
H         5.18422991779773    0.79740619725987   -3.11619447489297
H         4.11873875654380    1.87879038050573   -1.26674551905262
H         4.83603593549745   -0.67275122934220   -4.93605971487250
H         3.44328954154540   -1.80882625677491   -5.13255330141498
H         5.66862642454173   -2.38234791032240   -3.12747004931949
H         3.36337651787947   -3.58782206513539   -3.46282350741897
H         4.72653531247675   -4.50575684841975   -2.90318832303896
H         3.80522621758612   -3.89550569845531   -5.70104333410010
H         3.51145629837877   -5.58464417865267   -5.14001607680923
H         5.56388427322399   -5.16410276124823   -6.65662470871082
H         5.78293518383544   -6.19495126931568   -5.20279151079762
H         7.62933053117075   -4.58468502995990   -5.44649468153964
H         6.73014979056999   -4.66854282938545   -3.87605099942353
H         5.87011333602948   -2.82871270165442   -6.06423909549189
H         7.09520347810195   -2.20091218801824   -4.95675533395669
