35
 energy: -44.222980107355 gnorm: 0.079633281050 xtb: 6.4.1 (025e99ea0bd20707e8cccc6e19fe66a0758c6dd1)
C         1.87506841916784    1.69882768639214    0.73211943402341
O         1.48214185678348    1.49646106316654   -0.61892899035279
C         2.17740225599853    0.60113287759375   -1.38421814792953
C         1.56911469142171    0.16285897892632   -2.56132115123323
C         2.24527358145337   -0.66670746333939   -3.46138865900151
C         3.53604533150830   -1.09946013777749   -3.12744714634736
C         4.15475583721001   -0.61539541343860   -1.96713839556736
C         3.45194349132494    0.16400665036759   -1.03308182652850
C         4.41111535768869   -1.69343012137452   -4.21192832349336
C         5.65174674318007   -2.57939479120758   -3.92136590998448
C         5.16665162232328   -3.83199614617771   -3.17281705185664
C         5.62614340618057   -5.07476561543714   -3.92927772443190
C         5.21900753992348   -4.96628229094636   -5.38592782706193
C         5.92803247135297   -3.86008709042502   -6.14055056056930
C         6.52827942145693   -2.88217112944250   -5.14674739967057
H         2.12604669447338    0.75290047647444    1.22310616973376
H         1.00056337682422    2.15010909629705    1.21126223384926
H         2.75629100000572    2.33047976529452    0.88531271266918
H         0.53092266964242    0.47293983991957   -2.64179795892232
H         1.88843581977931   -0.79713265518372   -4.48150099734985
H         5.23075247050486   -0.68930812253115   -1.84538188237681
H         3.94169238550136    0.53371765471497   -0.13711733618181
H         4.74426054249399   -0.76938342266195   -4.70625343356011
H         3.74571603726507   -2.31482461360462   -4.82656260378464
H         6.30258228208616   -2.01562149788215   -3.23196907958528
H         4.07345173731333   -3.78676687127098   -3.11830858292592
H         5.63357750750874   -3.89114241344272   -2.17857477737314
H         5.25815257156939   -5.99574576024708   -3.45922273483181
H         6.71885869701316   -5.13531991094561   -3.84232306596256
H         4.12369304885679   -4.89997446276080   -5.41023466847876
H         5.43910296057777   -5.93648300071156   -5.84556502311122
H         5.21039765142011   -3.46255379071606   -6.86638685995090
H         6.69872836080519   -4.21587212494323   -6.83657233478236
H         6.81773717786778   -1.93134143334499   -5.60547652612635
H         7.45851711360151   -3.35764533245302   -4.80171394699344
