35
 energy: -44.227104620238 gnorm: 0.095414245677 xtb: 6.4.1 (025e99ea0bd20707e8cccc6e19fe66a0758c6dd1)
C         2.40548981752787    1.77328283557085    0.72081305536537
O         3.31879516384100    1.72255747258867   -0.36729340052400
C         3.26670882830098    0.73287846690454   -1.30989064420839
C         2.31313818793577   -0.28601128678304   -1.32525117782328
C         2.43326961224825   -1.21465890530364   -2.36384391902347
C         3.33352277502152   -1.08444095410529   -3.43036679360006
C         4.13443892355853    0.06431948921040   -3.38219523099327
C         4.14703804720456    1.01780041173959   -2.35040560319883
C         3.38995260827511   -2.10386464592827   -4.54940134064087
C         3.85084252934950   -3.48461132238463   -4.01121432021091
C         4.05349216582667   -4.36552529877026   -5.25523060933863
C         5.36779780489491   -5.13904351995731   -5.20927786635155
C         6.48482915859356   -4.11488890166668   -5.26129750404203
C         6.31914413626278   -3.11065633701580   -4.13884256987753
C         5.15904360731514   -3.41390458930478   -3.20799992927757
H         2.42085517377865    2.81854962736427    1.04641649049557
H         2.76016708543117    1.07691374682137    1.48714583542249
H         1.36949244284425    1.47254103595718    0.53301109727552
H         1.74100997823607   -0.52770694966117   -0.43377945108517
H         1.83612587401889   -2.12322208938466   -2.41774567093215
H         4.74607063089757    0.32118297334632   -4.24125535470854
H         4.93103215410894    1.76242216605642   -2.24948852203138
H         4.05889976363824   -1.75280726626723   -5.34844685793559
H         2.38074068126941   -2.20234559222997   -4.97184122649709
H         2.99106857801753   -3.81305676366790   -3.40326073083980
H         4.04342407511876   -3.76073530328782   -6.16859283016361
H         3.21558663102027   -5.07450591584706   -5.32800812245204
H         5.47505305011937   -5.81896454393613   -6.06413287718570
H         5.35772002675913   -5.69237563104716   -4.26113407117200
H         6.42417311075942   -3.56246645378644   -6.20779191475064
H         7.49817767370510   -4.53152759967278   -5.23817291188466
H         6.07450045455366   -2.10901504395872   -4.50861951035989
H         7.21832877013117   -3.17413399518896   -3.51239301915256
H         5.11687319251171   -2.57569057430746   -2.50520960390088
H         5.34182359481520   -4.33676269614432   -2.63756995191035
