35
 energy: -44.218136939569 gnorm: 0.096016125602 xtb: 6.4.1 (025e99ea0bd20707e8cccc6e19fe66a0758c6dd1)
C         1.04504215482690    1.80974844836018    0.24117249243908
O         2.33471504424811    1.21774826321060    0.32456915146683
C         2.76834228231031    0.37300137805632   -0.65982772633792
C         2.03579042520941   -0.08108658691828   -1.75748029680154
C         2.73041120464565   -0.69655116019371   -2.80351958316527
C         4.12775806539399   -0.76301897764255   -2.89233012082839
C         4.84888084342126   -0.34190336736841   -1.76712731673975
C         4.15644874822776    0.27732712146222   -0.71310366235812
C         4.83832997867494   -1.22691727877309   -4.14713418539771
C         5.25503985205802   -2.71056187870298   -4.33064915155224
C         4.07516649062073   -3.69501074483332   -4.38906241483961
C         4.54267162932434   -5.14327140338552   -4.28033609326385
C         5.93468414676899   -5.21007514583386   -4.87799500958693
C         6.01459001618288   -4.30247394349345   -6.08866208155439
C         5.83345482866229   -2.83411459522958   -5.74899808682688
H         0.95402520205119    2.46428439290097    1.11417591172014
H         0.23362452194789    1.07517869726490    0.24188490415505
H         1.07149331700672    2.54298781507153   -0.57164122404714
H         0.96020361277248   -0.01693298918688   -1.89700325657893
H         2.22429220068341   -0.84063717374217   -3.75643925016592
H         5.92769958234555   -0.22554824844300   -1.79297527818091
H         4.78674988601817    0.79642224757595    0.00282463120269
H         5.73786939132482   -0.62777923983801   -4.34978603950233
H         4.19473751566049   -1.05689168999054   -5.02094349771231
H         5.94641498759283   -3.00852488836697   -3.52447690962276
H         3.41817897318385   -3.50157101317134   -5.24407780739657
H         3.36199855628848   -3.40052963076480   -3.60502916565129
H         3.90909564151400   -5.74100396658351   -4.94807153977547
H         4.50027233297293   -5.52001001388284   -3.25003275883038
H         6.20460527161315   -6.17922899053401   -5.31683985473309
H         6.66457394051671   -5.05610655681651   -4.07515484685368
H         5.28536839439818   -4.67859407024636   -6.81436193169390
H         6.96067429755590   -4.47246746257311   -6.61878300537561
H         5.14601305150144   -2.35893904412725   -6.45605347303268
H         6.80154441800542   -2.33239754530698   -5.89579221766975
