35
 energy: -44.217369930182 gnorm: 0.085225241314 xtb: 6.4.1 (025e99ea0bd20707e8cccc6e19fe66a0758c6dd1)
C         1.71264892581913    1.55830095044675    0.75471797476499
O         1.24471775806418    1.31129393676181   -0.56463919531028
C         2.12404469828910    0.67762386609132   -1.39885347178338
C         1.65944951398489    0.12905894594815   -2.59505459243880
C         2.45557123384038   -0.62085446133831   -3.46644024483178
C         3.82995097890130   -0.78856588484942   -3.24772413213173
C         4.29115367394192   -0.32554532648822   -2.00823157708049
C         3.45839858216023    0.38585921362991   -1.12829010464163
C         4.61227660404877   -1.55772304934227   -4.29223894405647
C         5.69228458233799   -2.58852087000276   -3.86848810698237
C         5.35956348905209   -3.93729627966889   -3.20912903607834
C         5.68499572989206   -5.21608593769078   -3.97504826432842
C         5.00458236027645   -4.99285533395344   -5.31167218776603
C         5.68008403514431   -3.85047422836443   -6.04276899793994
C         6.49935985280335   -2.96576740679879   -5.12062923958451
H         1.97235564357395    0.64351538226564    1.29744824077650
H         0.90381083794760    2.06837176404722    1.28725953812486
H         2.57111084744948    2.22933670510993    0.86316111025954
H         0.61819439253184    0.31780640403784   -2.84128926528037
H         1.91556196814700   -1.12899111750377   -4.26340965925889
H         5.21590829283978   -0.66187312860190   -1.55022611617825
H         3.94942128861333    0.73248572790734   -0.22383482503355
H         5.11714509516347   -0.85244329924912   -4.96817799695732
H         3.81441846937206   -2.05248120900863   -4.86258921737715
H         6.28333598055304   -1.99284297195248   -3.15258217306879
H         4.27808866904459   -4.01229808821159   -3.05136405284275
H         5.88915253251985   -3.97945311035220   -2.24590839209747
H         5.22203062140030   -6.01221908805680   -3.37804852368798
H         6.72119085158247   -5.43612889555341   -4.26338037565519
H         3.92243798286425   -4.85679463457115   -5.18857702745890
H         5.14207840145263   -5.94898185243560   -5.82927694424224
H         4.90879023298852   -3.25045721549395   -6.53769954945452
H         6.34323328020257   -4.22357296939589   -6.83399075302692
H         6.83622536113840   -2.03272440353083   -5.58349823153412
H         7.45189233471142   -3.42011246796904   -4.80963341234672
