35
 energy: -44.223902767031 gnorm: 0.100809756092 xtb: 6.4.1 (025e99ea0bd20707e8cccc6e19fe66a0758c6dd1)
C         1.13540144102147    0.52071865370894    0.54063563724516
O         2.49648408257329    0.82672189652667    0.26770445291583
C         3.07248906154452    0.42761296070681   -0.90685818294675
C         2.27628750271544    0.15530126339347   -2.02022185117421
C         2.78340001778159   -0.20331554134400   -3.27310800835535
C         4.16413276598699   -0.39645386348156   -3.41856656063137
C         4.93914231088123   -0.02210002062372   -2.31282827327634
C         4.45465893021159    0.32475230599798   -1.04049036110813
C         4.88173006975398   -1.00031566662747   -4.60812629332084
C         5.21613423977403   -2.50212834240273   -4.40500386797913
C         3.92998027366319   -3.20123566448915   -3.93414319856553
C         4.16407939921226   -4.70823775442286   -3.97868204830870
C         5.58796103757062   -5.07501665640411   -4.34934643468547
C         6.07060818950394   -4.50605208301304   -5.66812264455052
C         5.75534242802242   -3.02323494927349   -5.74636336562048
H         0.76602309687389    0.80548246096431    1.53124432149741
H         1.02283909419859   -0.56272597364098    0.43354101422516
H         0.49143621025639    1.06218605337073   -0.16016933173409
H         1.19297280551851    0.22152837755879   -1.97009632401653
H         2.16361216574906   -0.33259248899879   -4.15861553929855
H         6.01358250852628   -0.11534734790702   -2.43505631918727
H         5.10186840689297    0.61917242810460   -0.21968023479892
H         5.74932316825141   -0.38224647171886   -4.88103288688490
H         4.19216329500484   -1.05445761413098   -5.46148963085673
H         5.94301754776098   -2.48799513283537   -3.57546415619266
H         3.15779179090875   -3.05843625731576   -4.69797310768280
H         3.55994419701839   -2.82455605512992   -2.96914499056745
H         3.41296561094634   -5.25715816710339   -4.56099453669330
H         4.00726083885546   -5.12116347047998   -2.97361740560564
H         5.74471059656842   -6.16126770217154   -4.33557588286186
H         6.21896937468403   -4.75777740136682   -3.51138134083690
H         5.47148558108151   -4.98120318520371   -6.45244039071707
H         7.10800500137594   -4.82131018129285   -5.83965002977441
H         4.97354226281975   -2.83539795743770   -6.48919651558286
H         6.67605526230002   -2.53816796981735   -6.10338419476550
