35
 energy: -44.227317659491 gnorm: 0.078805420884 xtb: 6.4.1 (025e99ea0bd20707e8cccc6e19fe66a0758c6dd1)
C         1.09112046792951    1.37001934750868    0.72275371291811
O         2.22258594098309    1.68251544201469   -0.07899902172414
C         2.75408684286462    0.77055207551759   -0.94876719547386
C         2.11222515217493   -0.33765246360221   -1.50335307823094
C         2.71377045555956   -0.99443026516878   -2.58144351729071
C         3.98790900820513   -0.69728640807941   -3.08459356603935
C         4.63493069482787    0.40482418949428   -2.51000423108650
C         3.99345170308153    1.11532666323208   -1.48162425333730
C         4.64258440018301   -1.44909924581987   -4.22513066744247
C         5.24577534298427   -2.84306633602673   -3.90647319574336
C         4.16239005823799   -3.90598037352393   -4.15374409795492
C         4.76078504130343   -5.28176847608725   -4.43118227669761
C         5.51991875877422   -5.22647369364334   -5.74267617850185
C         6.07394833417171   -3.84378982897896   -6.02030220236765
C         6.50344319062507   -3.23668297493532   -4.69696694861719
H         1.15100933801633    0.35239922584432    1.12237724312986
H         0.20991256905693    1.44655845885439    0.07807844234486
H         1.13073275911669    2.04746956765047    1.58211268001607
H         1.12879603992566   -0.62752678383673   -1.14375694905720
H         2.11051388644076   -1.71035252788163   -3.13688021325148
H         5.59351056689770    0.77408755646639   -2.86046917970103
H         4.37191407407779    2.12419642116840   -1.34656637965776
H         5.46522396156509   -0.85456627133295   -4.64821459360630
H         3.93185408262321   -1.52147131028653   -5.05956901831120
H         5.53396915916722   -2.86826589397262   -2.84204634482272
H         3.59185264119979   -3.76059544236372   -5.07756936620604
H         3.41056588166413   -3.90673716527592   -3.35075244301595
H         4.10301007095754   -6.15751182520858   -4.50174465553444
H         5.49116637893025   -5.50423235009359   -3.64231754267294
H         4.89616226668941   -5.54116579498553   -6.58919735727849
H         6.33669884865612   -5.95661760907902   -5.71514597674449
H         5.25096892902446   -3.22137065517301   -6.38795702218925
H         6.91045444176974   -3.92876326275554   -6.72602063359470
H         7.14670010204098   -2.35642205882998   -4.79523486202369
H         7.00376004264527   -3.99564739541030   -4.07719116342671
