35
 energy: -44.217844464232 gnorm: 0.100218767187 xtb: 6.4.1 (025e99ea0bd20707e8cccc6e19fe66a0758c6dd1)
C         2.61362859839655    1.13399916791150    1.09846192057924
O         1.85795425316863    1.12867324084523   -0.10553280691736
C         2.50280268118162    0.49215762363886   -1.13007438575490
C         1.64902732953655    0.03334973003249   -2.13418205750332
C         2.12595527882922   -0.51885235377653   -3.32712188386317
C         3.50360226503208   -0.69286111119706   -3.51867670403930
C         4.33508600415774   -0.19043269009557   -2.50890534358892
C         3.87931587347721    0.38998667702843   -1.31338814490479
C         3.98784034349607   -1.33551231143499   -4.80209410357203
C         4.84701834935973   -2.59993144013045   -4.53454301498487
C         4.01807273161644   -3.88482853859375   -4.37162757522669
C         4.98923003923636   -4.88722941007523   -3.75527752613906
C         6.46583640257255   -4.60524223528277   -3.95395981248929
C         6.51008132163903   -4.26869775612702   -5.43065201171265
C         5.78035853126953   -2.96505262756060   -5.69949171879994
H         3.04714433122167    0.12864033634886    1.11087517631798
H         1.89304859920566    1.25225549424669    1.91379725658833
H         3.38455063719328    1.91157954704439    1.09113156811247
H         0.57957640347175    0.05354139162277   -1.94356111679894
H         1.49370625829686   -0.72632413712969   -4.18862622839078
H         5.40693734375504   -0.27631470336901   -2.65660595746302
H         4.55208316571060    0.73677290360459   -0.53466094520810
H         4.69813625913433   -0.54558161443913   -5.08616195081959
H         3.26581016502532   -1.41522156696395   -5.62609744601781
H         5.46009134807804   -2.38413589599084   -3.64332530845862
H         3.58468943774396   -4.10314808229562   -5.35377743571594
H         3.10820034929863   -3.76133209353364   -3.76589113010952
H         4.81195380053080   -5.89684403104147   -4.14748261098060
H         4.71813911897296   -4.87978084171913   -2.69145946119107
H         6.98069878871300   -5.54138224884028   -3.70244443497480
H         6.89138526267876   -3.85110748938609   -3.28225547499664
H         5.93803716022021   -5.04972411942433   -5.94313039495861
H         7.55364791379911   -4.26231149646325   -5.77113613896116
H         5.27204622113170   -2.92566924316781   -6.66818303384023
H         6.55547015019415   -2.18493042459494   -5.66666951823990
