35
 energy: -44.229253925659 gnorm: 0.069948488212 xtb: 6.4.1 (025e99ea0bd20707e8cccc6e19fe66a0758c6dd1)
C         1.00196341166749    1.25869455585212    0.36702149506058
O         2.41273095468704    1.30388993513899    0.19859438175012
C         2.92780589709083    0.62137983188760   -0.86890026230229
C         2.18690151928355    0.17003345865686   -1.96206830728264
C         2.78948541284002   -0.43187989459851   -3.07116063369642
C         4.17867628562275   -0.60579201849024   -3.14034736912873
C         4.90277161643658   -0.32581407372614   -1.97384146447014
C         4.27611719699373    0.27369048810692   -0.86850307802892
C         4.74177027456021   -1.11847945514594   -4.44982209469166
C         5.34707189886605   -2.54304613147237   -4.33692441299019
C         4.47560272019759   -3.59172722886802   -3.62596573061278
C         3.99104263178768   -4.62824498916472   -4.63525947129192
C         5.21898344447306   -5.37784286323496   -5.11444853186470
C         6.38858591379591   -4.48624878381085   -5.47904380027337
C         5.89035633761360   -3.06594591599132   -5.67593923153596
H         0.75449144567789    1.81585211827174    1.27651005058425
H         0.71657709835041    0.20278220357271    0.40696593327054
H         0.46774582429817    1.69503569956018   -0.48340412920559
H         1.10419767735490    0.26070466542303   -1.96273241488688
H         2.25941435576002   -0.92402006743031   -3.88466897358410
H         5.96856792153219   -0.47520575249438   -1.83306916603231
H         4.87467538936612    0.30876629338022    0.03691966986393
H         5.56012524731987   -0.44350719928047   -4.73949935199146
H         3.94646024710787   -0.99366160762975   -5.19719424375999
H         6.20777939935753   -2.35057073985759   -3.67448117357764
H         3.68377527411065   -3.12964896698017   -3.02630263963503
H         4.99565396306848   -4.20322672889672   -2.87386811186227
H         3.41462619131502   -4.14007694711401   -5.43150655892070
H         3.29885458062266   -5.32723438291113   -4.14787443728445
H         4.87522394658190   -5.95367174240863   -5.98332821035648
H         5.58530117729935   -6.00352859529834   -4.29266604994413
H         6.91663117045285   -4.76521715908936   -6.39731154322269
H         7.15848096052023   -4.54135493231225   -4.69851424520486
H         5.14258916687577   -3.16519709398825   -6.46921647176340
H         6.71434369457811   -2.43277948468867   -6.03734076957025
