35
 energy: -44.216454920447 gnorm: 0.113053030042 xtb: 6.4.1 (025e99ea0bd20707e8cccc6e19fe66a0758c6dd1)
C         0.91154004331782    0.96627223295156    0.25171785401568
O         2.33185601840364    0.97886414551934    0.19497849395619
C         2.92201483102390    0.51512937715234   -0.94840670843965
C         2.26139290444175    0.40009011936893   -2.17234048902876
C         2.82519193979806   -0.05971811427900   -3.36657660193112
C         4.13393736387290   -0.56008941849927   -3.32537565848240
C         4.76731999085149   -0.58021682631848   -2.07563204095785
C         4.17795295714468   -0.08418248275527   -0.90069762264781
C         4.89761437291689   -1.03002409563669   -4.54627949377853
C         5.34285362259856   -2.50501952554767   -4.36006273331512
C         4.03365787571505   -3.31154715465528   -4.34692783139283
C         4.26615446881956   -4.71565053435233   -3.79712746481458
C         5.62360881050316   -5.16716196013575   -4.29993251055649
C         6.08445292104241   -4.53191714024439   -5.59605224883546
C         6.23487327184376   -3.02456602031528   -5.49844546906743
H         0.51027247228076   -0.02114959071969    0.00108099526938
H         0.42271377310935    1.68428696296442   -0.41423674299791
H         0.56030743887937    1.12617234769802    1.27644873551214
H         1.22902267121698    0.72507332760535   -2.26756105168187
H         2.34081987805571    0.09176522134997   -4.32959768807449
H         5.71413312815787   -1.10880875856716   -2.02881373486222
H         4.55303149028936   -0.13994989383381    0.11689693269013
H         5.65802014349286   -0.24210608334907   -4.64714378645488
H         4.29257165544199   -0.91712875470672   -5.45613697113667
H         5.86787558546459   -2.50281037916659   -3.38998939316842
H         3.57539947964464   -3.16316628077705   -5.33084104532606
H         3.28601830507958   -2.95673641546791   -3.62223466811574
H         3.50622572420378   -5.33510732265247   -4.29043767954864
H         4.22880773758937   -4.84069591806685   -2.70707080703199
H         5.73673250385489   -6.25313293217481   -4.41205505505141
H         6.38177557862619   -4.87081767770851   -3.56620164480311
H         5.22942217729234   -4.73905589273575   -6.24865224999672
H         7.05890694424144   -4.90377100780659   -5.93834673723427
H         6.02772389868519   -2.53283321696662   -6.45426098939764
H         7.29248540916365   -2.85403425287562   -5.24776349117054
