35
 energy: -44.223722264687 gnorm: 0.105130477646 xtb: 6.4.1 (025e99ea0bd20707e8cccc6e19fe66a0758c6dd1)
C         0.99822069364497    1.04585070921038    0.45367475688157
O         2.28103001556725    1.38474389782488   -0.05644977152097
C         2.78483983607647    0.58834692400790   -1.04770887630436
C         2.10582297936348   -0.35418629164340   -1.82116636965409
C         2.78569612025033   -1.01227810342925   -2.85081705349035
C         4.08075012671670   -0.54636359483576   -3.11660328887792
C         4.78280245768148    0.34962180142597   -2.29943106152673
C         4.10384063399479    0.98723263895864   -1.24760516214932
C         4.76652884038641   -1.17436445125961   -4.31241674213635
C         5.30017239113057   -2.60414804760674   -4.03051320697820
C         4.20394037916614   -3.67502806979256   -3.90345343050255
C         4.83772919098022   -5.06046128311482   -3.98547756492464
C         5.30712396885590   -5.35373980895531   -5.39721904883185
C         5.82588732895482   -4.06624454433229   -6.00473873393700
C         6.38243868919844   -3.04632125239261   -5.02787240720275
H         0.93267977039135   -0.02408433425907    0.67678850977814
H         0.14537599832537    1.22813290640673   -0.20770329495365
H         0.82406576234851    1.59303663031699    1.38601771854452
H         1.04905433531231   -0.55031757047173   -1.66228942300355
H         2.21701939320600   -1.66591426182716   -3.50986155241308
H         5.80992554707165    0.60911588719764   -2.53551890599283
H         4.48970455789586    1.88416349817775   -0.77229825703570
H         5.58559073353210   -0.54748403246798   -4.69368289638140
H         4.21279388047513   -1.27013747382037   -5.25627466946668
H         5.79166411776256   -2.58799717286142   -3.04315802546858
H         3.44008281902104   -3.57624764538778   -4.68247005802382
H         3.76293534930700   -3.47884338782188   -2.91498901488395
H         4.15044145032189   -5.80825197315675   -3.56952321525102
H         5.75667118731635   -5.04948758556853   -3.38491130839683
H         4.55086154358044   -5.80512581374951   -6.05221462475724
H         6.06461345508348   -6.14550711083556   -5.37955604080071
H         4.96244764585256   -3.58378113976280   -6.47545284338411
H         6.58365413797518   -4.24120513841989   -6.77945139736620
H         6.67802198314228   -2.17221236548114   -5.61682018930473
H         7.31885579920086   -3.48424490978179   -4.65129328870481
