35
 energy: -44.228079191009 gnorm: 0.077056422950 xtb: 6.4.1 (025e99ea0bd20707e8cccc6e19fe66a0758c6dd1)
C         2.80102123809942    0.75073181944758    1.05556459137326
O         1.93346237451534    0.85797871811626   -0.06537925469446
C         2.51634556706911    0.61885142222677   -1.27935306173948
C         1.70197181580900   -0.05753179279140   -2.18873219691178
C         2.25136261413489   -0.58776855602215   -3.36027459122086
C         3.62413202490828   -0.52901249172064   -3.63764691817870
C         4.44334488448675    0.14036517698858   -2.71880982827253
C         3.87705377335006    0.70288322984810   -1.56262546841449
C         4.21575475570932   -1.24066304311822   -4.83688975468049
C         5.04271387900336   -2.45069631330405   -4.32651314341318
C         4.02747294301894   -3.58652995562846   -4.11717938250948
C         4.55763962287240   -4.91919318173487   -3.59682044361810
C         5.98192367587531   -5.02417044817548   -4.10647962480858
C         6.17063030417365   -4.36865356338627   -5.45944934860536
C         6.03491716204264   -2.85709326596337   -5.42738417798525
H         3.48556256682186   -0.09598790691553    0.94021628463504
H         2.17220983660189    0.52972121671159    1.92374794671725
H         3.36708257720490    1.67153334950908    1.23079264853663
H         0.66517026833160   -0.19244432359394   -1.89324870130920
H         1.60497342684041   -1.07536910967924   -4.08787326513131
H         5.46003321570755    0.42219501056748   -2.97370839641553
H         4.58441424313106    1.20787844434200   -0.91153900363702
H         4.79015630956708   -0.52645430887216   -5.44448671503185
H         3.43067746669003   -1.60057445680754   -5.51569760725807
H         5.60944225631606   -2.08463333410176   -3.45386655536359
H         3.50833787600839   -3.69614247125663   -5.07560868739597
H         3.21462601524153   -3.24711979227087   -3.45830429451377
H         3.89823861522522   -5.75584219139559   -3.86098350378838
H         4.65073397541708   -4.90392677208837   -2.50304029124327
H         6.33145002778311   -6.06176732539748   -4.18345648277356
H         6.55912612073263   -4.50669542881763   -3.33184764294879
H         5.49006197148438   -4.76079535562491   -6.22294286939815
H         7.18181715188921   -4.66175926980928   -5.77024134149422
H         5.74822235556765   -2.35045893402072   -6.35443491267537
H         7.02560651235175   -2.42295340938018   -5.22608050674643
