35
 energy: -44.219982827547 gnorm: 0.100000202849 xtb: 6.4.1 (025e99ea0bd20707e8cccc6e19fe66a0758c6dd1)
C         1.08760112672353    1.61070697316738    0.24848585851749
O         2.49007276391705    1.45345320263166    0.07813343276795
C         2.79113900610145    0.67497282911589   -1.00537684361825
C         1.96646204546924   -0.20068950505431   -1.71304389058073
C         2.47090923498727   -0.93466381764009   -2.79114759706716
C         3.82972518038915   -0.91820846268782   -3.13499638790888
C         4.63327586185483   -0.02077365073133   -2.41920672448388
C         4.14636771889098    0.71079397547092   -1.32302985066914
C         4.50385481390958   -1.64350960420074   -4.28135359235488
C         5.23263151095593   -2.90072803762820   -3.73654855742687
C         4.27417795766474   -4.10285481903037   -3.76672852909211
C         4.92200212770866   -5.23694678124418   -4.55539872329831
C         5.27086119065435   -4.71477488434296   -5.93561306744102
C         6.18450695488738   -3.50696101314889   -5.88789806347633
C         6.56466756982703   -3.13533734324256   -4.46605611739848
H         0.57850360393977    0.68007789416269    0.51975249491983
H         0.61247500607658    2.00575272759582   -0.65494417514706
H         1.02705392467812    2.40752290083900    0.99710070362118
H         0.95758478136592   -0.52626376277062   -1.47505774968038
H         1.88868269431389   -1.75281751226250   -3.21139740521389
H         5.69069020868215    0.07559609017428   -2.64424955690696
H         4.72376210314382    1.37768662831714   -0.68965594117930
H         5.19862173912024   -0.99674356981359   -4.83650937575758
H         3.71705997572898   -1.90279005320112   -5.00273435807784
H         5.44167005723879   -2.80895573348076   -2.65739335276804
H         3.27897673302060   -3.88880247556103   -4.17152350110271
H         3.99897567124583   -4.45433110897571   -2.76136099062604
H         4.21542383800887   -6.07667871012671   -4.54233024366575
H         5.87896625828622   -5.46106671325686   -4.06627240715923
H         4.35868747941922   -4.60311505771488   -6.53575687576717
H         5.92023043391775   -5.47721895429468   -6.38058092194790
H         5.67627992482550   -2.61805600436046   -6.27703039117701
H         7.14542469565930   -3.65661661034713   -6.39705595335025
H         7.15590785025602   -2.21556928380948   -4.41354925611494
H         7.18921694235153   -3.86709313482036   -3.93226073229983
