35
 energy: -44.223526670458 gnorm: 0.088958549893 xtb: 6.4.1 (025e99ea0bd20707e8cccc6e19fe66a0758c6dd1)
C         1.15735922083536    1.28551124098794    0.52065332331516
O         2.49182801185683    1.36306702847446    0.03706928583096
C         2.93448371581448    0.60037336426486   -1.00840734241070
C         2.03171338073248   -0.17738678761619   -1.73488110176913
C         2.39230128852856   -0.89575789929268   -2.87917658832206
C         3.72181100418504   -0.73091493866685   -3.29162567836252
C         4.65258624837006    0.03265387661604   -2.57464737490698
C         4.28674857938268    0.59527677200633   -1.34034889093006
C         4.34988981483771   -1.42594562536888   -4.48204438808676
C         5.30838413152422   -2.53520372222912   -3.97276911037820
C         4.58654045040088   -3.78804392074044   -3.44933241459779
C         4.94568499882915   -5.10913041112876   -4.12282115360686
C         5.33153437835333   -5.14465242211430   -5.58884168896295
C         5.80016987543435   -3.79002210897367   -6.07995993808294
C         6.40078267245815   -2.94009869709072   -4.97490101471589
H         1.23724180363288    1.66581635087865    1.54428565646191
H         0.80955216264406    0.25408550613222    0.63547058445104
H         0.42932434026346    1.84970251963922   -0.07151150181658
H         1.00286527357086   -0.15221912787792   -1.38658884551912
H         1.66287490460944   -1.43655352617067   -3.47955175785006
H         5.71453442648356   -0.00865936730532   -2.79513725403119
H         5.06700518323599    1.12966949940959   -0.80657306745404
H         4.86379700910282   -0.68503669369796   -5.11145576249353
H         3.56610820555638   -1.93246754806411   -5.06151363522954
H         5.88050845625884   -2.14139924788596   -3.11586362047547
H         3.50515710021652   -3.66796130280852   -3.57697671023799
H         4.85004131781033   -3.85309019810060   -2.38332489003155
H         4.11937219487254   -5.81322991298928   -3.96150030170599
H         5.79279873614150   -5.49305480949975   -3.53950733161661
H         4.46256661769108   -5.52080940400783   -6.14391136176052
H         6.09858534491237   -5.91668655138599   -5.71765893157725
H         5.00702063849717   -3.17233307958055   -6.51498332495073
H         6.54131493349934   -3.98442455466280   -6.86603445745750
H         6.69059767099182   -2.02194927837535   -5.49576974506290
H         7.28042596099506   -3.38504252423930   -4.48631259375093
