35
 energy: -44.214152755866 gnorm: 0.091017767164 xtb: 6.4.1 (025e99ea0bd20707e8cccc6e19fe66a0758c6dd1)
C         1.85309097410717    0.93523242213184    0.71509718882043
O         1.38517151759457    0.40267985383835   -0.51702071082482
C         2.19069170626295    0.21823616785868   -1.60687612781043
C         1.82756870783439   -0.78238753858105   -2.50940764179389
C         2.76658569697263   -1.21415049313934   -3.45138464794768
C         4.08677486107343   -0.74300612830913   -3.44872943531771
C         4.37375351064786    0.34379447328325   -2.61210201710620
C         3.46666977566401    0.77518080164977   -1.62976837871109
C         5.17891685109005   -1.32621267168919   -4.32150849729041
C         6.03465631654908   -2.50913319479561   -3.79526221166812
C         5.14961216182796   -3.36440549455846   -2.87338425555049
C         4.59941537488166   -4.50405518361783   -3.72563039773857
C         4.29946024425337   -4.10374058376410   -5.15710967078091
C         5.61648901251614   -3.93263985878969   -5.88649256967925
C         6.64274736647159   -3.31039002249926   -4.95705204608378
H         2.84382187318485    0.57885176825899    1.01556593652184
H         1.02672678656647    0.62882408172492    1.36411796098027
H         1.98648749094834    2.01987518343140    0.64609561336869
H         0.88808874015025   -1.32267351497430   -2.43235067119713
H         2.35796499358734   -1.94158081451497   -4.15056083525674
H         5.34580342109113    0.81807601881091   -2.52136904081600
H         3.83849395393929    1.42032140161279   -0.83930461488865
H         5.93564708403843   -0.55588073867820   -4.52924242077473
H         4.65743105180416   -1.64448501681111   -5.23442576757146
H         6.77303026514877   -2.01909965125558   -3.13847742532321
H         4.41449274664610   -2.66758006515188   -2.45608745866046
H         5.77448223253546   -3.79059444858881   -2.07467521245958
H         3.71571922830877   -4.99381331673934   -3.29692132728010
H         5.35239832779491   -5.30273370050911   -3.70603595253330
H         3.67521531488676   -3.20105017036097   -5.14408387685500
H         3.68951641409694   -4.85911547923501   -5.66541573547780
H         5.54025050483596   -3.48049513366995   -6.88129085632762
H         6.07226286788926   -4.89607847441043   -6.14928085651722
H         7.29570988175771   -2.61234042195958   -5.49058932463447
H         7.26478163232425   -4.14101404887298   -4.59153451652384
