35
 energy: -44.220615462587 gnorm: 0.100197552031 xtb: 6.4.1 (025e99ea0bd20707e8cccc6e19fe66a0758c6dd1)
C         0.95919361499925    1.10157208862790    0.31439872357179
O         2.27313284052561    1.50448894714631   -0.04877767948449
C         2.86214433087903    0.69015306062886   -0.97645736222147
C         2.17171178197577   -0.30499189517435   -1.66975285468230
C         2.64594578808802   -0.89898437491351   -2.84353642770412
C         3.97242533546448   -0.60903820795601   -3.19177016400241
C         4.73332633816730    0.30741481778067   -2.45381267817718
C         4.17025187887473    0.97939238499835   -1.35596581532352
C         4.64569884392212   -1.35924923029584   -4.32249272676102
C         5.33983601790618   -2.68137183781899   -3.89977348876016
C         4.24997599723044   -3.75987286431280   -3.78275425844650
C         4.78295951707371   -5.14804695466637   -4.12443051520785
C         5.34528544194333   -5.25370887279986   -5.52870359424515
C         5.92408886521168   -3.93538814443668   -6.00078060226886
C         6.46207300527825   -3.07170263686248   -4.87433434659511
H         0.91482468845807    0.02490621480456    0.50845632108890
H         0.31071883136248    1.38114849298551   -0.52184842467716
H         0.76238178546632    1.74568705459728    1.17775657891129
H         1.25547930309894   -0.77767936531225   -1.32689148112942
H         2.00981684835228   -1.70750110412087   -3.19936470422221
H         5.78760712436195    0.41380667352142   -2.68882178737575
H         4.65162809255900    1.78513515255597   -0.80975330536098
H         5.34651079047177   -0.57944685534495   -4.65411932370051
H         3.99442378537660   -1.55707278937072   -5.18468139512738
H         5.78520077432370   -2.58298279085861   -2.89545031064115
H         3.42392953820527   -3.47840902173418   -4.44496887838524
H         3.83705669354905   -3.75631613606687   -2.76318534791389
H         4.01215969123184   -5.92758616385916   -4.07189838542004
H         5.64633512568286   -5.24381319710589   -3.45311387766181
H         4.52117442731687   -5.54773083389039   -6.19134490569589
H         5.97665688477164   -6.14808366011146   -5.57831815368572
H         5.25752124374380   -3.26803428782964   -6.55773412939677
H         6.77848136196175   -4.10716623270935   -6.66824386503773
H         6.91983833127960   -2.15186332462744   -5.25201392587197
H         7.16893466253304   -3.60707697386617   -4.22303803483337
