35
 energy: -44.222085065018 gnorm: 0.097230617225 xtb: 6.4.1 (025e99ea0bd20707e8cccc6e19fe66a0758c6dd1)
C         0.99923655151034    1.01667252368176    0.51849468484848
O         2.32341529733383    1.27332930434129    0.06977059150977
C         2.88240224459131    0.65919763599184   -1.01698740454773
C         2.15020098728496   -0.25670594005664   -1.77373781281230
C         2.73226701010590   -0.86242917092344   -2.89167848217772
C         4.05963243911536   -0.53544738345411   -3.20162595537792
C         4.78312842533085    0.47212905105484   -2.54987369870206
C         4.10377843990364    1.11801446329686   -1.50336041239632
C         4.60524719941362   -1.36860657890384   -4.34302754970652
C         5.25604368962664   -2.68008877934251   -3.82824162920674
C         4.20744557657640   -3.80306167921961   -3.89169792176609
C         4.85582595288553   -5.16448228643535   -4.12403006465478
C         5.39726993032169   -5.29326309092531   -5.53456602433449
C         5.87421433856167   -3.91188925095260   -5.93477846240742
C         6.39881160245725   -3.09370791950472   -4.76874339375041
H         0.72656107595915   -0.04310354561395    0.48162845698539
H         0.22439766653734    1.64265128374321    0.06487910909417
H         0.95955195791906    1.33277491734605    1.56611588379761
H         1.12927032983620   -0.48932821702962   -1.48381233371168
H         2.27465759619614   -1.63065305670025   -3.51248342500430
H         5.80658121883359    0.75564592513587   -2.77396973057523
H         4.52378681354687    1.93419861442820   -0.92307688934361
H         5.36567813290822   -0.83680524542999   -4.93305929147780
H         3.84031446938002   -1.70475755415897   -5.05614963126481
H         5.71034040437291   -2.47617227263696   -2.84400193519543
H         3.56574059065980   -3.60960229321414   -4.75823760910293
H         3.51551089544620   -3.82661283190247   -3.03688361092331
H         4.11438600508767   -5.94316454943378   -3.90381627403741
H         5.65815966263562   -5.17369128561800   -3.37474343308733
H         4.59532398923404   -5.54218153430460   -6.24140667309091
H         6.16312246609352   -6.07678502016183   -5.51087965108035
H         5.14793086078867   -3.31144416565849   -6.49321270703631
H         6.59853493864747   -3.95204774623016   -6.75864035706370
H         6.96480373285495   -2.22660671570227   -5.12382610469575
H         7.15303300225992   -3.70889702616031   -4.25575371307834
