35
 energy: -44.217317470712 gnorm: 0.093836118733 xtb: 6.4.1 (025e99ea0bd20707e8cccc6e19fe66a0758c6dd1)
C         2.25516231263662    2.05484105587423    0.71948670647105
O         1.47329990653757    1.35574045445631   -0.24000530059992
C         2.14210693289777    0.55834715252705   -1.12743313769820
C         1.54625147418256    0.08318542404318   -2.29655540139905
C         2.25445743907190   -0.64775001557058   -3.25554995315213
C         3.57886032215919   -1.06064370671928   -3.05465359695049
C         4.16358000239775   -0.51720274641409   -1.90304055689925
C         3.48200434675059    0.23432897193218   -0.93117165314777
C         4.50496263369041   -1.42472537977831   -4.19676847199649
C         5.33387320925039   -2.72497525537100   -4.02131563947493
C         4.43425516687518   -3.96435008381422   -3.88242629668340
C         5.40888160730345   -5.13169253808581   -4.00594271212043
C         6.15423508068399   -5.22726174455684   -5.32301237502203
C         5.91295220733050   -3.98551022933114   -6.15708395497525
C         6.23107622632403   -2.79787850895719   -5.26680940868794
H         2.51804290971457    1.39221100571574    1.55054119675409
H         1.57209224391639    2.83623562735739    1.06709224434768
H         3.10772604541724    2.49406923504309    0.19107450115842
H         0.47664260436830    0.24161151218470   -2.40289155172468
H         1.66666229884735   -1.09935641125664   -4.05274606967924
H         5.19191077938182   -0.70752051715875   -1.61257289230880
H         4.01616751220687    0.37925719305035    0.00315061944980
H         5.17359555355951   -0.56144663522424   -4.32671137022136
H         4.01884736570369   -1.65744718356808   -5.15394932278810
H         5.98172138495420   -2.85002950325229   -3.13737593806735
H         3.67136074757719   -4.03036021649145   -4.66584037536851
H         3.98146690053179   -3.94750412284098   -2.88006170882677
H         4.88523112873315   -6.07041793339928   -3.78422625952695
H         6.18104074096594   -4.91296558019875   -3.25682093672561
H         5.81069463231106   -6.10635093554212   -5.88326547985336
H         7.21527847810585   -5.43688055089022   -5.14625086995342
H         4.88458718267769   -3.92587251905140   -6.52961518301805
H         6.47733596837444   -3.96944279925013   -7.09847349497117
H         6.00591451796733   -1.91349215236766   -5.87134088022475
H         7.31266139834736   -2.82537958799038   -5.06710168197301
