35
 energy: -44.218239994126 gnorm: 0.106924155213 xtb: 6.4.1 (025e99ea0bd20707e8cccc6e19fe66a0758c6dd1)
C         0.90398893538153    1.32561189860757    0.31319877798683
O         2.31280827456379    1.44188432061803    0.16358535705682
C         2.85843001554898    0.68132064284158   -0.83366430161363
C         2.18965961964469   -0.32155261051943   -1.53698544572247
C         2.81301088386173   -0.97847915072970   -2.60252453486984
C         4.12445124391843   -0.66970620091135   -2.98939266641847
C         4.75798409299569    0.38797294681771   -2.32351829108303
C         4.07688038777558    1.12542615221450   -1.34059665181857
C         4.83046477598818   -1.35524410017857   -4.14101325442669
C         5.47171557886081   -2.75126883221821   -3.92092576833497
C         4.43298692436285   -3.87802921851739   -3.79401384581734
C         4.99412539919931   -5.22489036989097   -4.24002959693189
C         5.23057165160328   -5.30398415178933   -5.73575521009525
C         5.47706885415091   -3.89541510894097   -6.23676621659768
C         6.27358518346590   -3.18281818637835   -5.15879213589658
H         0.57662869761908    2.23112667636731    0.83446130322482
H         0.64649843011904    0.51303100078187    0.99978651885825
H         0.36804309964614    1.28028678461318   -0.64059022566594
H         1.22216602132657   -0.68828474363954   -1.20542398786314
H         2.40861647548700   -1.87139696059640   -3.07595461816344
H         5.76570661143732    0.66962664895324   -2.61200226570682
H         4.45429334881940    2.03882281930934   -0.89053158746369
H         5.61234203956468   -0.61418685460506   -4.36171085126065
H         4.14084559029630   -1.40504076724564   -4.99459882828605
H         6.07872896543653   -2.65945054218803   -3.00452009200662
H         3.60420184274510   -3.76301397801652   -4.50111329564487
H         3.83600668277833   -3.95413743244642   -2.87322185472686
H         4.45192361111785   -6.07793872141168   -3.81236254781514
H         5.94703628479288   -5.27884561523319   -3.69753137777820
H         4.31286802330431   -5.74080508775179   -6.15013294367259
H         6.07629793656122   -5.95803664169012   -5.97650436362476
H         4.55590058163604   -3.32135696865583   -6.38433674219314
H         5.88984830972741   -3.88728130642672   -7.25389374950674
H         6.59153091647368   -2.30665578478017   -5.73285247740222
H         7.15202401837744   -3.75417064147140   -4.82357944030104
