35
 energy: -44.222174598651 gnorm: 0.085617880390 xtb: 6.4.1 (025e99ea0bd20707e8cccc6e19fe66a0758c6dd1)
C         1.25206368293352    0.73935577836897    0.83222360170405
O         2.39597396968595    1.25088174514807    0.16104120621748
C         2.91829803355183    0.55916492383157   -0.89696278834763
C         2.19644875349412    0.21438976441354   -2.04052429900544
C         2.81528265266338   -0.24988907492381   -3.20542025346548
C         4.19895986948372   -0.43939149644052   -3.32546063395200
C         4.93998659298022   -0.19861067491879   -2.16083978549792
C         4.27166293828517    0.25184570140735   -1.01005441864218
C         4.79153802712416   -1.04996470685526   -4.57873585482149
C         5.09295131486976   -2.56780080386552   -4.46105081578848
C         3.83310360741064   -3.41456054275860   -4.21521647718469
C         4.20802401401077   -4.89349633172947   -4.22021871790437
C         5.69613922983188   -5.13165231790127   -4.38800607759945
C         6.21387974190899   -4.50127860482153   -5.66488249768706
C         5.80584038154570   -3.04097562716647   -5.73754508525053
H         1.10582396786970    1.34002032052085    1.73591182643927
H         1.41634185652839   -0.30945652359458    1.09867666682683
H         0.30709423947402    0.81658579982812    0.28443346111703
H         1.13950730231850    0.46436197283651   -2.06981567295212
H         2.12131587893320   -0.38027571760682   -4.03390231955368
H         6.01143327840232   -0.13484970497945   -2.32206329621250
H         4.94519288257552    0.48067434592731   -0.18951347663205
H         5.77643707269744   -0.64120212033899   -4.84723601199930
H         4.10332652190847   -0.92690334058501   -5.42601590653792
H         5.85692554356932   -2.73937237398018   -3.68413268017548
H         3.04133776748104   -3.11560261181647   -4.91079814597744
H         3.38867623914266   -3.14595853881374   -3.24548814330595
H         3.70590074205337   -5.42564684107778   -5.03830271732029
H         3.85087423355178   -5.33286426775522   -3.27965798465692
H         5.87011231164764   -6.21528513995427   -4.40122195757394
H         6.14039869159611   -4.57462853105474   -3.55532618957437
H         5.93802852283423   -5.03091863510244   -6.58317348525067
H         7.30262750542529   -4.59441611007419   -5.56021554937262
H         5.22051298107511   -2.82725501902320   -6.63755100434228
H         6.71976245401958   -2.44616404187715   -5.88387208321277
