35
 energy: -44.221500146078 gnorm: 0.089861988428 xtb: 6.4.1 (025e99ea0bd20707e8cccc6e19fe66a0758c6dd1)
C         0.72130671341366    1.33064003863212    0.10780652144201
O         2.13942537392688    1.39287648582869    0.03203402490055
C         2.76327993191390    0.62482170090536   -0.91219286424050
C         2.06095321735852   -0.01766493300516   -1.93278943651956
C         2.71255158019194   -0.67039227058831   -2.98391237703834
C         4.10593567137496   -0.81868535314398   -3.02097253896452
C         4.75524232439528   -0.18917034121961   -1.95066909117795
C         4.14335941456900    0.44792570598832   -0.85815713335058
C         4.92706639365283   -1.33978214747601   -4.18237246134794
C         5.59441594033774   -2.72298159366480   -3.95892215967578
C         4.53353816031618   -3.78457551188952   -3.62394526898424
C         4.90467652403844   -5.16036176471675   -4.16920658587656
C         5.07015417633945   -5.09978404717566   -5.67529597727811
C         5.70372250768853   -3.80921397938494   -6.15368882566913
C         6.53781715036385   -3.07436490565094   -5.11998493962485
H         0.35419009655674    0.34833426690438   -0.20705395047990
H         0.37930505255288    2.19990113928860   -0.46264225517715
H         0.49400550379566    1.43878625192146    1.17347266433724
H         0.99970049251174    0.19480241758317   -2.02802393195892
H         2.21692316823557   -1.20038946571837   -3.79534848317871
H         5.84061352204859   -0.19080168426236   -1.95548574198073
H         4.63764187960066    1.14260842991309   -0.18555521412026
H         5.75468597325234   -0.63567282560986   -4.35113625634363
H         4.27281083699031   -1.36579223569496   -5.06437915523305
H         6.19030198342152   -2.70248575192204   -3.03091625346545
H         3.57683346184094   -3.40831421854804   -4.00242434211287
H         4.34383498716160   -3.81939374312015   -2.54096966363754
H         4.05346468887735   -5.84393283111394   -4.05632441579894
H         5.76976355109299   -5.53843116475694   -3.60890077103105
H         4.04433012541995   -5.20544886809198   -6.05109026705212
H         5.70628640928783   -5.94982637327438   -5.94688682822501
H         4.85297128123354   -3.18251699214839   -6.44238249102445
H         6.20689730861355   -4.10310947180613   -7.08398018639209
H         6.97901898374790   -2.17516131708485   -5.56165129196653
H         7.41387954019373   -3.62658933912817   -4.74846262335275
