35
 energy: -44.226254733464 gnorm: 0.093086755595 xtb: 6.4.1 (025e99ea0bd20707e8cccc6e19fe66a0758c6dd1)
C         0.99035060085146    0.79215390711493    0.34266454375978
O         2.40260359552943    0.74318569405486    0.18833058037927
C         2.86528004063166    0.29031110552447   -1.01645246461552
C         2.16686690323959    0.17425164557156   -2.21912387942186
C         2.81884156436221   -0.22065414937232   -3.39150235959955
C         4.20576741353096   -0.42246152275318   -3.41587458640992
C         4.86470510216644   -0.42649840898570   -2.17925718390149
C         4.23669069043801    0.04934617173809   -1.01605286399057
C         4.99874200035874   -0.89542578379574   -4.61676736158514
C         5.24500582988636   -2.40757428516532   -4.36920478432138
C         3.93019704496268   -3.20392786762548   -4.41105780511243
C         4.10862388253672   -4.65581119236451   -3.97742191705519
C         5.56810335931460   -5.06075108380354   -4.05023065442663
C         6.11655302716020   -4.53402924472002   -5.36080561126620
C         6.21642380629732   -3.01963230053798   -5.39061311153769
H         0.51435398989308   -0.18672436883778    0.22408586994416
H         0.52812914638465    1.48572956737714   -0.36676898521978
H         0.87858740351181    1.21843869550045    1.34505969427576
H         1.11113377811244    0.41062757331493   -2.31924039266454
H         2.23791201529962   -0.17483221291634   -4.31095562879805
H         5.94668261458776   -0.49610744993245   -2.22961336879471
H         4.78693094317332    0.14817340197983   -0.08505263348492
H         5.89694681301845   -0.27142877376821   -4.73105285373845
H         4.48709555398741   -0.64317921774494   -5.55551773109566
H         5.56577709281564   -2.60887577814770   -3.33321311831903
H         3.54539930913978   -3.19995634233667   -5.43673698656905
H         3.15290007326477   -2.69602352511077   -3.82124566101503
H         3.56184782550431   -5.26805138616186   -4.70596242077730
H         3.83814676188766   -4.71260226509694   -2.91493824880964
H         5.76894151845497   -6.13568658882226   -3.95600177994204
H         6.18217384354789   -4.75291906778182   -3.19632512387987
H         5.41487446011005   -4.82619967197357   -6.14957327467175
H         7.02254605270759   -5.10296440863604   -5.60675453946276
H         5.97895364747416   -2.75133950462944   -6.42498355858158
H         7.22159940067393   -2.69149900850198   -5.08661222538520
