35
 energy: -44.225841674547 gnorm: 0.096593307319 xtb: 6.4.1 (025e99ea0bd20707e8cccc6e19fe66a0758c6dd1)
C         1.14653379658772    0.89915416244565    0.58943624422770
O         2.31774179412130    1.42090820655166   -0.02433890054005
C         2.76768599549866    0.72015509804361   -1.10931004214271
C         1.98646264872194   -0.11248814331513   -1.91184637233255
C         2.63101819259643   -0.89894667220651   -2.87180677465671
C         3.92750107000999   -0.57521248104326   -3.29514096709291
C         4.64570239813746    0.32392241011734   -2.49565297201696
C         4.11485348202434    0.96404374313600   -1.36325791949902
C         4.68359741581380   -1.28318177358907   -4.40046676257663
C         5.31533382902408   -2.61881333371031   -3.92557350916279
C         4.20111629596225   -3.67838775363469   -3.90379813870691
C         4.82358183672189   -5.06558262073825   -4.03055954986151
C         5.41487353429623   -5.31477835632838   -5.40447125805123
C         5.94361660653241   -4.00263056758320   -5.94718535618173
C         6.45527747528109   -3.10819367113482   -4.83253449113259
H         0.94942895954447   -0.16972747344797    0.45723152737726
H         0.28820109030068    1.42723508446564    0.16236797205283
H         1.25234888720191    1.25090128573151    1.62098018380318
H         0.90235625186130   -0.13744147477485   -1.84431878748455
H         2.06035670881410   -1.58591100233926   -3.49422028931559
H         5.68752528964128    0.53107391172172   -2.71869963552161
H         4.70905678031139    1.52419666850056   -0.64740617584900
H         5.48080079201316   -0.62841370856823   -4.78119090923435
H         3.97782244433340   -1.46355733534180   -5.22266443792885
H         5.78088389302488   -2.57230467725974   -2.92667646843977
H         3.52358149986145   -3.54257427071905   -4.75385939971244
H         3.58242129257309   -3.71273782299508   -2.99491292638993
H         4.01177595186375   -5.77261760543845   -3.81691004326628
H         5.52398001896873   -5.30335813762936   -3.21928904529027
H         4.60301426919012   -5.62984592747512   -6.07254187217319
H         6.21424322057593   -6.06419737244474   -5.42388792562576
H         5.25834131072981   -3.35215496353285   -6.50139655488179
H         6.74901402037901   -4.31074911779511   -6.62644923837801
H         6.96537488211448   -2.21320027722774   -5.20278140780718
H         7.28556741081085   -3.60955021904743   -4.31318277908469
