35
 energy: -44.217406554538 gnorm: 0.083771481371 xtb: 6.4.1 (025e99ea0bd20707e8cccc6e19fe66a0758c6dd1)
C         1.18613890552604    0.30914108427765    0.40913026657773
O         2.56868156680781    0.42479233945172    0.09949184683885
C         3.05615190208986    0.24086875603698   -1.16510764401247
C         2.26341112036412   -0.13724518610281   -2.24966338691371
C         2.86816055056731   -0.47845585547298   -3.46347814462271
C         4.25619971873402   -0.31228945141615   -3.56652933546685
C         5.00910630078697    0.26435535460036   -2.53500123245237
C         4.41484822381237    0.51966287707766   -1.28778438090307
C         4.94238710526032   -1.03018770321338   -4.71038961329764
C         5.53220464283890   -2.29014987107544   -4.02254020068983
C         4.48856094885344   -3.15020349890942   -3.29057814949455
C         3.71102891283693   -4.02116822312289   -4.27277252507770
C         4.52752612421337   -5.04076263649545   -5.04291362044804
C         5.97607146679661   -4.59702375730121   -5.01738228934585
C         6.21992023525175   -3.10304237994626   -5.13059972525203
H         0.98801123833744    1.04948150893729    1.19110075111064
H         0.95688824860301   -0.69648799359963    0.77538986488974
H         0.46753352544683    0.50705134988834   -0.39301909585558
H         1.20133181147024   -0.16658090401672   -2.02251521367993
H         2.30482345113825   -0.92051410259244   -4.28336162905038
H         6.07261654467391    0.06200410205916   -2.61282437617419
H         4.95580004109512    0.83236607155496   -0.39959497058649
H         5.73760794242888   -0.40526851961937   -5.14202043507252
H         4.26003345810933   -1.30128369235355   -5.52743498726215
H         6.21540695004881   -1.86851383489962   -3.26613231358937
H         3.82340385692885   -2.42853966958960   -2.80388500667283
H         4.93371920307638   -3.77662987543606   -2.50352040568711
H         3.15179306591042   -3.50500411498268   -5.06359694152902
H         2.90609318582291   -4.50643415789723   -3.70545419128458
H         4.08289521703812   -5.22012855553294   -6.03024973865456
H         4.49179891943258   -6.04377291871420   -4.60280942184852
H         6.58079214568444   -5.12916212220212   -5.75968442331056
H         6.35841876776739   -4.99048662094345   -4.06659368216390
H         5.83191804050749   -2.73529588732227   -6.08585473761991
H         7.29674386656889   -2.88321879996852   -5.18153530214650
