35
 energy: -44.218450161561 gnorm: 0.104164420600 xtb: 6.4.1 (025e99ea0bd20707e8cccc6e19fe66a0758c6dd1)
C         3.06884432228569    1.49000427362111    0.81786803230681
O         3.12475196454228    1.79907635337472   -0.56850282755374
C         3.09126498737428    0.78695260293327   -1.48782388603877
C         2.16961723910585   -0.26094131054623   -1.47545435106876
C         2.37827597229786   -1.16763319349626   -2.51941995883300
C         3.28056821549435   -1.02065424362492   -3.58203437123908
C         4.08625450916765    0.12566562512388   -3.59809932669848
C         4.02435486049435    0.99904873656646   -2.49935239863439
C         3.45483244895082   -2.12448751731684   -4.60469334491682
C         3.75151218992949   -3.55140471183587   -4.07138798849963
C         4.05853275769679   -4.46649293968631   -5.26846974540222
C         5.49775601287882   -4.96502897036977   -5.17936502478845
C         6.39976287347003   -3.76473610694965   -4.96714242022334
C         6.17240862438296   -3.08462528247633   -3.63237691289268
C         4.87168387703681   -3.57126549096069   -3.01954969770283
H         3.11356418623338    2.46266988966079    1.31862554907682
H         3.91106305427886    0.84619024328222    1.09019669781982
H         2.09484038554252    1.04606356933788    1.04860327223550
H         1.46280878692119   -0.54167975028136   -0.69951811007026
H         1.76110536910707   -2.05885789393974   -2.61837488933697
H         4.78216568884201    0.30220429446967   -4.41210068180652
H         4.70721810730507    1.84273917183971   -2.46504770070243
H         4.30925455830255   -1.90270415171387   -5.26042218701177
H         2.57407055201353   -2.03633589607081   -5.25519348705272
H         2.83780201901152   -3.86274952021205   -3.53763397095631
H         4.02767357959115   -3.92228948142817   -6.21872926587745
H         3.26510819025037   -5.22834990413819   -5.27780710748066
H         5.80038403404034   -5.36387431892620   -6.15604923400644
H         5.47615913923080   -5.80271364478565   -4.47008891253670
H         6.25427760859298   -3.18149478020178   -5.88549147065374
H         7.43397745535963   -4.09290699930175   -5.12109640002529
H         6.19284031801718   -2.00749004849460   -3.83045020242646
H         7.03997864850055   -3.19692055076563   -2.96926796072210
H         4.66263568027915   -3.05687275906360   -2.07615461409353
H         5.13040499363742   -4.61598916068586   -2.79133531464816
