35
 energy: -44.216307003598 gnorm: 0.107837483724 xtb: 6.4.1 (025e99ea0bd20707e8cccc6e19fe66a0758c6dd1)
C         0.82479981939205    1.17666540658517    0.19157864622236
O         2.21350788124944    1.40395958944415   -0.00967407472948
C         2.73242784607598    0.72008830152954   -1.07443188899824
C         2.03500671982627   -0.20092634898933   -1.85737826543249
C         2.66404099167286   -0.82480798209829   -2.93931191925397
C         4.04735938354828   -0.72350603120548   -3.14192398730406
C         4.75135054287466    0.25269320669745   -2.42438008847840
C         4.07574089618418    0.91428573750441   -1.38528366607932
C         4.83125704383425   -1.50705596799203   -4.17449420601062
C         5.53195453751440   -2.81554806384884   -3.72128607791010
C         4.54025530724218   -3.94133465929210   -3.38395834287945
C         4.51496358309539   -5.04746135140488   -4.43452270047441
C         4.83951146156297   -4.64150805598762   -5.85903256781331
C         6.15869806356671   -3.90096546112150   -5.94378527133127
C         6.65080322749884   -3.39903150891195   -4.59836505117621
H         0.72206023871621    0.08795535209820    0.24627192559086
H         0.22741059892100    1.69210385097826   -0.56699971616589
H         0.51105019054895    1.55728538374471    1.16917537967446
H         0.99996871530153   -0.49092657730648   -1.69905731898458
H         2.08701117250919   -1.56775272703898   -3.48707354203732
H         5.75200918707328    0.57033427510154   -2.69977602345773
H         4.65725498027670    1.63159011787875   -0.81378705178140
H         5.61397214208585   -0.86555008960058   -4.60464836338238
H         4.31335810318784   -1.87953365847450   -5.06875575277844
H         6.10611321989739   -2.53645043478932   -2.82176312726257
H         3.53780694208588   -3.50542704740642   -3.31195363498884
H         4.84980902452668   -4.27881488080819   -2.38379867522048
H         3.60748373477185   -5.62633994314236   -4.22015554913227
H         5.40000778447717   -5.60035554797765   -4.09355435548023
H         4.00829085420469   -4.07806909177352   -6.30210166037278
H         4.96608306084987   -5.57766038784879   -6.41454692903031
H         5.98316245552833   -3.07110679207929   -6.63688889548210
H         6.93420952065528   -4.51560207171860   -6.41897499444589
H         7.31076463115415   -2.53736413371688   -4.74075746748156
H         7.21176554158485   -4.11253645541099   -3.97651463561954
