35
 energy: -44.217914779114 gnorm: 0.103680600776 xtb: 6.4.1 (025e99ea0bd20707e8cccc6e19fe66a0758c6dd1)
C         0.77312035582289    1.69433520002399   -0.00901954110894
O         2.07591866379370    1.15539426809191    0.17245941387829
C         2.75448649251151    0.51590360361234   -0.82817261584916
C         2.12535969621687   -0.41782611324384   -1.65280436196932
C         2.89510872458527   -1.03544303064399   -2.64352561666283
C         4.27266291129007   -0.81058614592562   -2.77262769367393
C         4.83796482557750    0.09983818226676   -1.86985473699449
C         4.10343524529790    0.84503522426490   -0.93229295666435
C         4.94540067963795   -1.25428237486849   -4.05528308459612
C         5.52376875960427   -2.69240993486090   -3.97908834625670
C         4.43940946221610   -3.77932997973525   -3.89293409644846
C         4.92332473172672   -5.18349684025243   -4.24219451574957
C         5.06864106883154   -5.15655525156343   -5.75133833935067
C         5.64257349319249   -3.86764018986468   -6.30373238503191
C         6.34574564949150   -3.06774640780263   -5.22207642850296
H         0.15454339443857    0.91055885124317   -0.45834518343440
H         0.80482798461828    2.58383366237523   -0.64602732032894
H         0.34768563075258    1.93200720463822    0.97155329147661
H         1.07614571835748   -0.65576734528157   -1.50113592991621
H         2.39258136744555   -1.65086861975678   -3.38762956975286
H         5.92247546042667    0.14277028215448   -1.87692583559521
H         4.53446332488066    1.53559519692256   -0.21352019356065
H         5.78444993614687   -0.60768352669293   -4.35042980546068
H         4.12491318252405   -1.29479457123743   -4.78454415021415
H         6.15612053234164   -2.81473459237120   -3.08362024125414
H         3.63949826518793   -3.47249623429185   -4.57564778403638
H         3.94804654317139   -3.76991788477409   -2.90880521397552
H         4.08237990218449   -5.86336738734554   -4.05468129434493
H         5.80057175518944   -5.48372288348202   -3.65435387088513
H         4.12263173471953   -5.44054321096228   -6.23000164875540
H         5.70123726950816   -6.02822639561502   -5.95384569047136
H         4.99770588282704   -3.22755298652384   -6.91553703543443
H         6.36796182810429   -4.22160467931113   -7.04772321811351
H         6.75221547508026   -2.17693418843234   -5.71149566359899
H         7.27975990321476   -3.59071232052597   -4.96793081471739
