35
 energy: -44.222685592861 gnorm: 0.085854871320 xtb: 6.4.1 (025e99ea0bd20707e8cccc6e19fe66a0758c6dd1)
C         1.13927266377615    0.12305009275050    0.28022593026394
O         2.52863877894914    0.41544807561893    0.21065147970160
C         3.00273419602869    0.44151928982872   -1.07201017114208
C         2.25811074577199    0.16364393494604   -2.21917643953895
C         2.92031584653851   -0.17409323147433   -3.40362181807099
C         4.31925221226873   -0.21835193691021   -3.48044453223352
C         5.06258484907295    0.08372850931900   -2.33168792253625
C         4.39316417754158    0.42502676062865   -1.14456285947081
C         5.06005577823967   -0.83771134150242   -4.64759976286161
C         5.18228240404132   -2.33989487069299   -4.27742212294359
C         3.92962995728969   -3.14942951562205   -3.90303149795641
C         4.22883606960398   -4.59761399092718   -3.52742687656469
C         5.36243148254148   -5.15410338247912   -4.36685451825667
C         5.52091466877331   -4.39865247762214   -5.67070138829241
C         6.01272144316029   -2.98914056476254   -5.39563225530736
H         0.66388285069994    0.16743642890723    1.26555365990216
H         1.00908309602147   -0.89012925713328   -0.11285177946268
H         0.61205072312186    0.86562486091364   -0.32774241587509
H         1.18653934252290    0.28552683303884   -2.35089056080352
H         2.38601819780358   -0.59513485520561   -4.25345890623774
H         6.13899707673256   -0.04049357801373   -2.26874286155267
H         4.89769593914744    0.58815574989182   -0.19686606420166
H         6.09116485290416   -0.54041047962583   -4.88766555986627
H         4.44092149395535   -0.75733161211447   -5.55141086544351
H         5.82909252459017   -2.41487114397181   -3.38707923815624
H         3.27171354913543   -3.15092750504423   -4.77895764047662
H         3.38888621671085   -2.62168459498391   -3.10358339359239
H         3.33247877588797   -5.20432471005876   -3.70913840885005
H         4.44326641858211   -4.70588352179481   -2.45618835208491
H         5.15233171208713   -6.21958476814757   -4.52594219783374
H         6.30488997894426   -4.99717251526967   -3.83006549990965
H         4.54860131242746   -4.30015462983638   -6.16544951402071
H         6.26134697548069   -4.81513081516555   -6.36590441759326
H         5.91834430534434   -2.44865222352888   -6.34287067874848
H         7.07887777616063   -2.90788284774636   -5.13645311193082
