35
 energy: -44.222071994584 gnorm: 0.097421602799 xtb: 6.4.1 (025e99ea0bd20707e8cccc6e19fe66a0758c6dd1)
C         0.77747702036844    1.20727080822762    0.29877883107204
O         2.15603705595256    0.86817190694145    0.22625619922880
C         2.76066167937031    0.50828947747800   -0.94659535100886
C         2.19198178971845    0.38888876308203   -2.21545936331749
C         2.96571784499330   -0.00504595496992   -3.31165313403751
C         4.28812149004327   -0.45843854617423   -3.20885591750201
C         4.86268816684287   -0.35151922667429   -1.93532573090316
C         4.10658649650285    0.16034279450073   -0.86753269299048
C         4.97457417460927   -1.10273865430813   -4.39557719536425
C         5.25590999447432   -2.62429872983265   -4.27628237004072
C         4.01605999289432   -3.52518613495576   -4.15047822591097
C         4.40426223548484   -4.99271700196401   -3.99720208639938
C         5.77568276763406   -5.28106469924506   -4.57635586266103
C         6.00935640557453   -4.48927176031854   -5.84690701149858
C         6.14489656550601   -3.02680556186134   -5.46339398436805
H         0.13609906830262    0.33375345909423    0.14245187885948
H         0.51447978888612    1.97418687664435   -0.43651974713071
H         0.60750730628139    1.71045872745000    1.25633717463316
H         1.16105863815881    0.70762533098185   -2.34224175265451
H         2.42855708569701   -0.12155583878440   -4.25125776782409
H         5.89340285994940   -0.68138336884931   -1.85242002160093
H         4.60042887697580    0.46844886264580    0.04924587094456
H         6.02288330096477   -0.77124564390033   -4.37645429431734
H         4.32323042598066   -0.91062556732579   -5.25900440846923
H         5.77828885452340   -2.83788109412000   -3.32854922233712
H         3.45162962789761   -3.40300524612677   -5.08138801940627
H         3.42164835330900   -3.11954956451903   -3.31851095499576
H         3.60979573979280   -5.69250001136335   -4.28651178454445
H         4.34230223720925   -5.17973593555540   -2.91718379037135
H         5.82546604010318   -6.36189718109676   -4.76081224750473
H         6.65024823786198   -4.96875387928981   -3.99446673744493
H         5.30024038498331   -4.62871916099015   -6.67005929783210
H         6.96015680851551   -4.85346327037878   -6.25720518985615
H         5.78356413195246   -2.47691900137971   -6.33824195062325
H         7.21015618375144   -2.78767235911232   -5.32736742699746
