35
 energy: -44.220231099137 gnorm: 0.094873393858 xtb: 6.4.1 (025e99ea0bd20707e8cccc6e19fe66a0758c6dd1)
C         0.78099856308776    0.92281489764482    0.26570137963134
O         2.18335722906378    1.04791128314432    0.06970024819930
C         2.76557676098356    0.43899025992970   -1.00775169075099
C         2.07567591701473    0.03612626517087   -2.15204478072203
C         2.77484496889636   -0.42319729949897   -3.27261488175977
C         4.16836825570896   -0.57111135075460   -3.23948169342128
C         4.86307517702602   -0.11961270630301   -2.10945115764363
C         4.15738085414148    0.46140239556329   -1.04254374747948
C         4.78203761671711   -1.18822596729905   -4.47933119754523
C         5.58579038839653   -2.46649835150307   -4.12082404850141
C         4.74236554070778   -3.53691261926608   -3.40843324590950
C         5.22751573286376   -4.95970354676418   -3.66946326711676
C         5.08720643835178   -5.31972964252648   -5.13576892464801
C         5.42410350336712   -4.12886848989652   -6.00994838653778
C         6.21393950839729   -2.96952512832060   -5.42999768479375
H         0.35558392523681   -0.05669773993043    0.02401204866953
H         0.22449106771774    1.50250743083985   -0.47743237405633
H         0.61535188725569    1.28363044163262    1.28618121318597
H         1.00024489024820    0.03535761755144   -2.30669549000749
H         2.13572366699394   -0.55508463607446   -4.14387993758016
H         5.92435397187152    0.10657820210293   -2.08533721442272
H         4.68736238225874    0.75878820721753   -0.14255828008318
H         5.52239364364598   -0.42988863423925   -4.77259349153373
H         3.99458455730178   -1.34175055131109   -5.22967148809643
H         6.26983771619322   -2.05972306075752   -3.35707779365395
H         3.69181188340936   -3.47481787438947   -3.71270961102093
H         4.63635290659434   -3.35257659934514   -2.32916621761564
H         4.66687682705450   -5.67852426333850   -3.05827248638788
H         6.29861065823132   -5.03549246395781   -3.44084493100834
H         4.02274046686436   -5.56964024867021   -5.23146778004047
H         5.73438779282441   -6.18793669148765   -5.30420460593223
H         4.44754246850255   -3.68350411173353   -6.22869461505233
H         5.91274626508956   -4.41676552161426   -6.94981274292189
H         6.16333810792002   -2.18635584410376   -6.19313639580186
H         7.26251603721818   -3.28157568931666   -5.31347438408340
