35
 energy: -44.217116918278 gnorm: 0.094648165644 xtb: 6.4.1 (025e99ea0bd20707e8cccc6e19fe66a0758c6dd1)
C         3.09154840931859    1.46113288591908    0.82226485053731
O         3.08083742980466    1.93996587683410   -0.51612212783099
C         3.13661717645262    0.97773717928903   -1.48651992735109
C         2.28865754360797   -0.12892833628169   -1.42386620841109
C         2.35729167428991   -1.16750162266569   -2.35775485050758
C         3.24957872674994   -1.13986137001136   -3.43846924887093
C         4.06430095109843   -0.00030007750939   -3.47111524988832
C         3.95296744713286    1.10236094116485   -2.60762336364115
C         3.33919286378213   -2.13463549584734   -4.57734644914055
C         3.73689777333611   -3.57845448717671   -4.17023004557012
C         4.11995439619581   -4.45510738165723   -5.37414041410380
C         5.55345005305692   -4.96120928398691   -5.24455464123674
C         6.53819041940409   -3.83103507888836   -5.01575244400407
C         6.14286912944463   -3.18398775282812   -3.70392528936875
C         4.83073427549588   -3.64107119663626   -3.09266625095468
H         3.08067471370800    2.33295233039668    1.48457066784442
H         3.93123242243523    0.78523667183592    1.01223035236453
H         2.15347944235080    0.96669899300913    1.09533540979789
H         1.48927216156120   -0.28510732905878   -0.70479693558063
H         1.62621347697520   -1.97301956095570   -2.39823637887343
H         4.85296131082618    0.01181783656465   -4.21671877147139
H         4.54620344494962    1.98381932770124   -2.83211145081364
H         4.06423994975385   -1.82014484725108   -5.34194289335089
H         2.36208680558926   -2.16516487287016   -5.07833988335015
H         2.79346228772895   -3.95609531536801   -3.74126370483417
H         4.21333007184507   -3.93232324487950   -6.33230563023078
H         3.47099093163888   -5.32326587459731   -5.56171178557018
H         5.92027901875403   -5.46645769245555   -6.14718077143158
H         5.62889171838857   -5.60308322076407   -4.35710827846100
H         6.64056716506943   -3.11798630323758   -5.84387189852149
H         7.57036189468633   -4.19929545645746   -5.01372669060524
H         6.06181355848532   -2.09336666596183   -3.76594492186490
H         6.93815962568837   -3.32262911007442   -2.96008857477579
H         4.52349985859163   -2.85343522148424   -2.39730166513777
H         4.85525903188013   -4.58797910287253   -2.53299677474154
