35
 energy: -44.219778389153 gnorm: 0.105098041199 xtb: 6.4.1 (025e99ea0bd20707e8cccc6e19fe66a0758c6dd1)
C         0.95043966649952    0.99363426084059    0.51501512956723
O         2.22314945839908    1.40602865120299    0.03458196352571
C         2.78192268605150    0.67375448062333   -0.97646406537220
C         2.14352168701794   -0.30995938494969   -1.73304877569264
C         2.72083268063196   -0.91722030209381   -2.85261968993792
C         3.99995315760684   -0.54820694483647   -3.29144022377985
C         4.71493769060775    0.37650784618630   -2.51869354571316
C         4.08244729407906    0.93897385027322   -1.39732726830601
C         4.75894174951352   -1.22423696664864   -4.41463524544325
C         5.34604663331973   -2.59738099878511   -3.99236815089131
C         4.27931165210520   -3.68953398829052   -3.80816401761718
C         4.87573347707927   -5.07481624365305   -4.03863198769754
C         5.14811604671754   -5.22367306955104   -5.52288504924818
C         5.94941293676528   -4.04882830406790   -6.04585992428371
C         6.43578211507506   -3.14567401895600   -4.92692376953226
H         1.09692146250180    0.01074061275050    0.97468840123995
H         0.20600812516514    0.90365950333162   -0.28230414341117
H         0.69829568980922    1.80086245526460    1.21058096202664
H         1.11564227991360   -0.61760897814365   -1.56192023959987
H         2.04037975701623   -1.63423236877204   -3.30852605373482
H         5.75207833416091    0.62189552010522   -2.72407285491930
H         4.62485867851834    1.64201334930402   -0.77217294000872
H         5.69038895390226   -0.65850818541976   -4.56147659232650
H         4.04137647445077   -1.39312075206623   -5.22903134996714
H         5.86700089151104   -2.51882376132783   -3.02328061934805
H         3.42190617505120   -3.59294460985140   -4.48316712194841
H         3.90346337413983   -3.46519630679163   -2.79898294154002
H         4.20490716605716   -5.87712621611209   -3.70566931051507
H         5.80395187592300   -5.03945246867249   -3.45346991529831
H         4.29376731181130   -5.44638208158254   -6.17495124300413
H         5.74043672424737   -6.14368007531933   -5.58404949204918
H         5.24483012884246   -3.41503874984191   -6.59517282608144
H         6.85026097598461   -4.24652869458300   -6.64116557963299
H         7.08262069137334   -2.31422495062544   -5.22456049933694
H         7.11427091249121   -3.75443948553188   -4.31086896009488
