35
 energy: -44.219433017582 gnorm: 0.093497925489 xtb: 6.4.1 (025e99ea0bd20707e8cccc6e19fe66a0758c6dd1)
C         2.20848145975603    1.51560231385567    1.00368144562085
O         1.76328016002081    1.28474404044538   -0.32642217082962
C         2.47577761104656    0.55488632804133   -1.23764232434905
C         1.70341847724350   -0.07755749736989   -2.21290916183395
C         2.37952271709081   -0.83208082700851   -3.17679215775655
C         3.77588942227951   -0.71151301530375   -3.19930701639589
C         4.54809076228059   -0.10870478252752   -2.19742626362604
C         3.86549442955425    0.53685741672002   -1.15282772116264
C         4.49164685261833   -1.22205443343459   -4.43287341676648
C         5.30435302633872   -2.53838801533651   -4.30917728853187
C         4.54350075278396   -3.61145623056563   -3.51275952885227
C         4.55895865676043   -4.95389193535300   -4.23765181893174
C         5.87456900220571   -5.37559965058316   -4.86270364659384
C         6.43589483503780   -4.25036578277797   -5.70804481991728
C         5.54216971352184   -3.02400985210242   -5.74763393087634
H         1.37735908123699    2.04289730173183    1.48329790043121
H         3.11573118807276    2.12705217984521    1.03559994441737
H         2.40060744689606    0.56600170815262    1.51392850341360
H         0.62231684192555    0.01701725864307   -2.16052419726200
H         1.87719541613892   -1.55028614555995   -3.82240929405942
H         5.60387847728944    0.03198629031666   -2.40617203683098
H         4.29648470990157    0.97193538260860   -0.25602947055856
H         5.22759169643106   -0.45134343858468   -4.70415752838245
H         3.77584605779625   -1.33690437845100   -5.25816207884770
H         6.24707576921765   -2.27790060939144   -3.79916223299751
H         3.49163228454428   -3.33440789077512   -3.38268343344362
H         4.98932252712301   -3.78332457802463   -2.52193160232327
H         3.75312861644037   -5.06939599141411   -4.97377010664167
H         4.26849036964666   -5.64655613263844   -3.43696515972363
H         5.74937296041066   -6.34412924739821   -5.36368044850453
H         6.60109461444718   -5.75517270719471   -4.13532300857202
H         6.50566554332788   -4.53144545379059   -6.76445244132585
H         7.44474275427819   -3.93874387639126   -5.40784635192469
H         4.56900481500840   -3.19695908662387   -6.21809536526783
H         6.15641617479179   -2.28767835962881   -6.28706250519535
