35
 energy: -44.218374799208 gnorm: 0.095540619643 xtb: 6.4.1 (025e99ea0bd20707e8cccc6e19fe66a0758c6dd1)
C         0.76396981397024    1.51602085469807   -0.22393358246593
O         1.89742854088311    0.70098962059106    0.04378040257727
C         2.62504671083799    0.23825154703339   -1.01787506778092
C         2.08364865065479    0.11695820888132   -2.29843951417563
C         2.81241359149679   -0.40630670385504   -3.37109431233437
C         4.16964405770535   -0.72844895434367   -3.23313296979662
C         4.69675785141673   -0.49931839578737   -1.95520967109079
C         3.95599504996190   -0.12141108838321   -0.82280914126745
C         4.93779749188037   -1.35343402732714   -4.37942318321817
C         5.83843451813196   -2.53351000441697   -3.92687507560265
C         5.27228539871048   -3.69534043313502   -3.09364158748376
C         5.05206465247026   -4.98616216298666   -3.87666360600013
C         4.40845623108538   -4.54756942843205   -5.17772562622827
C         5.51543019071188   -3.93838902575807   -6.01399564138069
C         6.48409118390577   -3.09756837259243   -5.20222149295636
H        -0.14394486014588    0.93544263489945   -0.41746970270558
H         0.83420421097490    2.03098822505331   -1.18719239373886
H         0.60081199825398    2.16237258393973    0.64475205518305
H         1.01583054786569    0.31527758122843   -2.26838541517711
H         2.25541499556312   -0.62763837208944   -4.27979555595826
H         5.71361389486062   -0.83918980053480   -1.78624902265889
H         4.33181487754459    0.02326328651481    0.18571520221051
H         5.53155334385299   -0.52565190194919   -4.79347156248590
H         4.18131889010469   -1.65307172457139   -5.11740694906174
H         6.64732553760807   -2.07439386727019   -3.33391393860320
H         4.39790037003102   -3.28194568687576   -2.57919192722100
H         5.97030748502674   -3.89751435014682   -2.26785309351722
H         4.47533160321465   -5.71595434365148   -3.29412112991107
H         6.01113272179146   -5.47502649269356   -4.09219723839818
H         3.68046916012945   -3.73437745414677   -5.06172983552184
H         3.97389762242478   -5.35252473414421   -5.78121840597796
H         5.11733879066499   -3.22102513678786   -6.73979388070169
H         5.95259613060442   -4.68573031818441   -6.68880553334692
H         6.91269870619167   -2.33935473242649   -5.86532253049885
H         7.34952696116963   -3.64268280370359   -4.79683631583973
