35
 energy: -44.217752332211 gnorm: 0.090106398053 xtb: 6.4.1 (025e99ea0bd20707e8cccc6e19fe66a0758c6dd1)
C         1.41890268360714    2.05497920963522    0.45477794938164
O         2.62566986747574    1.30373049502711    0.45847932971112
C         3.00037278882515    0.61172480879840   -0.66017740831476
C         2.07057335364112   -0.00187331433469   -1.50079598195889
C         2.42533772116128   -0.75396114035345   -2.62507306791959
C         3.72699759816980   -0.86895974778673   -3.13236034508464
C         4.64507640886677   -0.24022926577436   -2.28073424436655
C         4.30873178272988    0.32027074406290   -1.03711595156457
C         4.15165162497276   -1.46930677137927   -4.45670912978069
C         5.05274016383531   -2.71733506780528   -4.25924778631318
C         4.19798559254958   -3.96321619989749   -3.97319244703182
C         4.33203919227251   -4.94232009835311   -5.13561517264723
C         5.75089326144267   -5.33865607272859   -5.49495998528714
C         6.73859958390290   -4.21100980380168   -5.27430241717022
C         6.01418491424712   -2.88811190333643   -5.44584043936672
H         1.48696386217290    2.58121832011805    1.41252344318205
H         0.57202736753192    1.37215681008057    0.57539125574879
H         1.23709153481837    2.73341222958842   -0.38526913613259
H         1.02638021982001    0.03378310056169   -1.20270431625096
H         1.55438947737461   -1.22788875218218   -3.07431116924627
H         5.70507233263017   -0.29196735175949   -2.50830467182348
H         5.16412121076942    0.68020781687912   -0.47315956650012
H         4.82434705870497   -0.73872546774160   -4.92887132028760
H         3.28923819896757   -1.66263073247945   -5.10903695167773
H         5.76646474260650   -2.62624104980576   -3.42318898170839
H         3.12906515164994   -3.72365844804553   -3.96205580348270
H         4.36577124838996   -4.52452797196918   -3.04216461114234
H         3.83697778180469   -4.45487078452373   -5.98525082538292
H         3.67314216055499   -5.79298418508522   -4.91771621470862
H         5.72703846180300   -5.63612316742336   -6.55120127529229
H         5.86941995666152   -6.27785753926465   -4.94282794299315
H         7.57745000472635   -4.34530282224253   -5.96579800825940
H         7.19971935428507   -4.11357982798218   -4.28290067442222
H         5.51328565257695   -2.81725187558634   -6.41659999047064
H         6.72626514294630   -2.06045178751306   -5.31024379245521
