35
 energy: -44.217064698724 gnorm: 0.093046748219 xtb: 6.4.1 (025e99ea0bd20707e8cccc6e19fe66a0758c6dd1)
C         1.03784470522757    1.01853301240863    0.39589853616419
O         2.36863888557202    1.36886352156701    0.03962508343257
C         2.76740696957774    0.69738420421807   -1.08321356506656
C         2.15821635911183   -0.39177452982153   -1.70794495870882
C         2.82120922970961   -1.00152315036284   -2.77758973020208
C         4.06768519609720   -0.57292646768956   -3.25454474165435
C         4.62173014555804    0.57031982306424   -2.66339343427837
C         3.93891795029808    1.22204668922194   -1.62277147786787
C         4.70477090033950   -1.43000568852049   -4.32887446068653
C         5.36385748537807   -2.72056196701036   -3.77336069568178
C         4.23408456524853   -3.75652034683449   -3.65065689462379
C         4.71812593168818   -5.11646712232650   -4.14471167918639
C         5.17969205289355   -5.10051783494214   -5.58903162475309
C         6.11150780668608   -3.96010173019713   -5.94541647049282
C         6.50039718252544   -3.20621298499011   -4.68657669829469
H         0.90546137074883   -0.04354522615442    0.62676825178822
H         0.27551444950000    1.32520311326901   -0.32714906498093
H         0.74262232820948    1.55296718282410    1.30487028297533
H         1.19721862087499   -0.88049949705454   -1.57340653482669
H         2.12811794713485   -1.73777647459201   -3.18073812598545
H         5.59485903122836    0.99160269471604   -2.89490457288975
H         4.32795839037806    2.13497313227723   -1.18174377306573
H         5.47589305483992   -0.87123729241723   -4.87874155664685
H         3.91471621672746   -1.81319191813355   -4.98890823637782
H         5.80333501710402   -2.57261198861013   -2.77252828021795
H         3.39657290500833   -3.45381105344064   -4.28865701596255
H         3.92133543675297   -3.73503664912355   -2.59625554745349
H         3.90712618870134   -5.85147760483522   -4.06339511337990
H         5.57518648731938   -5.52973439383111   -3.59706945189133
H         4.35415988129718   -4.91493819387508   -6.28814407428537
H         5.71668841949371   -6.02078653019659   -5.84542623333715
H         5.54884775902012   -3.30794316839467   -6.62215399471576
H         6.99449291153652   -4.28729392033762   -6.50958314113788
H         7.07831220437879   -2.32720985314079   -4.98933574874705
H         7.23876815936275   -3.79225840477453   -4.11928044804089
