35
 energy: -44.219883672057 gnorm: 0.101007035683 xtb: 6.4.1 (025e99ea0bd20707e8cccc6e19fe66a0758c6dd1)
C         0.68308979469702    0.73342175254063    0.13250495316972
O         2.10331123180279    0.72674914157120    0.07248889221262
C         2.72889147926318    0.46677212833021   -1.11567287970374
C         2.07603541637732    0.10520480145959   -2.29495965010376
C         2.80097776150034   -0.41309454772445   -3.37260394843891
C         4.20022536173439   -0.47022434316863   -3.31156412803810
C         4.83013492320256   -0.10157781714885   -2.11542390613631
C         4.09940778987189    0.26621677614703   -0.97321575943086
C         4.97092827730243   -1.03486353778283   -4.48708397393720
C         5.71783704130297   -2.37504832465530   -4.25350703089783
C         5.11831239745943   -3.35801707952523   -3.23419576937645
C         5.46385371531815   -4.79971391152005   -3.59468549517230
C         4.80716238965987   -5.14984978099677   -4.91586646047912
C         4.93971625445991   -3.97584196784555   -5.86453646438907
C         6.16024218791915   -3.14750580444655   -5.50615621327678
H         0.27345674103910    0.03536216863796   -0.60488906294949
H         0.33877734403174    1.75635680799200   -0.04927681465329
H         0.35985662991285    0.37016766890240    1.11361277692687
H         1.02444043232910    0.32129311400223   -2.46206190289958
H         2.26773652771439   -0.80587925166055   -4.23651775513170
H         5.88807732582811   -0.30304837041818   -1.98042767113904
H         4.63556689105171    0.31115555526986   -0.02992020215680
H         5.74340080501744   -0.31064168277041   -4.78372217050930
H         4.29436157289890   -1.18086663398508   -5.34008060677742
H         6.62415854080474   -2.01741155021933   -3.73642628509823
H         4.03031516769410   -3.23083297722972   -3.24794641695630
H         5.53414667502255   -3.13827067442749   -2.23979688862463
H         5.01818935664452   -5.44213436688579   -2.82445655966708
H         6.53551988005131   -5.03505926364316   -3.55728445801075
H         3.76801018460030   -5.50309239466268   -4.92501720113696
H         5.37621603348027   -5.94823091879335   -5.40552274141243
H         4.04196643976794   -3.37889994147608   -5.67069043522663
H         4.84696271449485   -4.32304964677739   -6.90176597852906
H         6.33030586225453   -2.53542485043646   -6.39763283571197
H         7.11189112481366   -3.69168259467680   -5.41287231834342
