35
 energy: -44.224921561297 gnorm: 0.087106490370 xtb: 6.4.1 (025e99ea0bd20707e8cccc6e19fe66a0758c6dd1)
C         0.96817417225509    1.18252502497338    0.52699102842733
O         2.31061170936058    1.32330110280563    0.08121202422964
C         2.83880514778170    0.68465597900233   -1.00681883889904
C         2.10027210337438   -0.09541444882426   -1.89773314985461
C         2.63576348237163   -0.81154972305274   -2.97285737141848
C         4.00699396108349   -0.70098913669335   -3.24190542113777
C         4.74302644428917    0.16964988378358   -2.42723884332557
C         4.16610910670426    0.89496786758291   -1.37132470936859
C         4.72036191682527   -1.35444843960070   -4.40755735319798
C         5.33213454426466   -2.66881224186435   -3.85374489367876
C         4.25775593678102   -3.76366153033556   -3.74572412567170
C         4.77360952941699   -5.14409504462354   -4.14086940499003
C         5.44109159893813   -5.23228549360538   -5.49956285892638
C         5.84754634536415   -3.86825746513432   -6.01923749591913
C         6.42625744039758   -3.10931101201216   -4.83883311006702
H         0.81128085434129    0.26957544138615    1.11072375530037
H         0.24309340515762    1.07259995241076   -0.28551506796229
H         0.68070575321555    2.03850660234511    1.14639655971572
H         1.07402689743396   -0.28648248591776   -1.59643078670078
H         1.96716315046780   -1.41723026536140   -3.58203532208558
H         5.80184428772962    0.36737896940743   -2.56089691279384
H         4.71089932724223    1.63567212453649   -0.79352422548620
H         5.53352608230725   -0.74691146676031   -4.83048546654296
H         4.02793180652224   -1.65449266716544   -5.20579082408208
H         5.85745587829030   -2.44906395486986   -2.90905266188593
H         3.37564202582647   -3.55652343685348   -4.36141212403717
H         4.02775820885689   -3.90995094572354   -2.68001486841464
H         3.86154991982185   -5.75451017622565   -4.13019172807708
H         5.44974675229406   -5.47662682701925   -3.34242359389527
H         4.77971240108547   -5.66202121505120   -6.26284927521628
H         6.30053411272677   -5.91198430087268   -5.51869037576637
H         4.99108046446091   -3.37111151762059   -6.48740722839159
H         6.53400109564888   -4.08506967490352   -6.84795566275726
H         6.90999075435932   -2.18604387609315   -5.17331061412075
H         7.29389081636855   -3.66179598601000   -4.44839918609628
