35
 energy: -44.222795244608 gnorm: 0.082133140038 xtb: 6.4.1 (025e99ea0bd20707e8cccc6e19fe66a0758c6dd1)
C         1.33243742694341    0.86999543201564    0.69559924265986
O         2.57296434290519    1.05850780313595    0.02759367218576
C         2.73318945742768    0.46915511220618   -1.19619487632631
C         3.70174642233180    1.05174344422036   -2.01482636747176
C         4.06909253764444    0.41576145286596   -3.20481653511688
C         3.45888120735263   -0.73836274496871   -3.71523106827383
C         2.56918850150627   -1.33571672008068   -2.81242828520913
C         2.21317075380997   -0.76440983764148   -1.57924773970992
C         3.96288854492676   -1.33863504034092   -5.01149380739513
C         4.88663821359108   -2.58363525152223   -4.93947173856195
C         5.94536599248524   -2.46879632316364   -3.83016549778703
C         6.51493025665912   -3.80731750480987   -3.36994924947841
C         6.50741034842245   -4.76268588140192   -4.54747737344668
C         5.15206492439218   -5.01641630160252   -5.17556916836760
C         4.14866518380573   -3.92790109020386   -4.84003325004133
H         0.54095963617357    0.81068061650952   -0.05864277243084
H         1.24697444632871    1.71107044706644    1.39078317678878
H         1.40377461283148   -0.06599467536369    1.25937162243810
H         4.19330200864650    1.97956101425323   -1.73554693652693
H         4.93200776633872    0.93228876097637   -3.62140981030373
H         2.10811210866880   -2.27608770239953   -3.09732733678309
H         1.72470220436914   -1.39158541986476   -0.83942218704595
H         4.60650188789688   -0.52886044749369   -5.38463225834588
H         3.09472761628024   -1.55552697285518   -5.64861009038590
H         5.47294067981955   -2.56700763458828   -5.87363883212735
H         5.54745294544334   -1.87401542022883   -3.00070559332499
H         6.81248616824880   -1.87270879600250   -4.15081799621540
H         5.94427494418490   -4.23471544075145   -2.53552915554354
H         7.51377299870006   -3.59053862600857   -2.96923147348637
H         7.04964131927633   -5.67433587083548   -4.26537587319165
H         7.05348466950153   -4.33689252191855   -5.39688929651200
H         4.81432634984602   -6.05084151422653   -5.04999875556406
H         5.31553834840907   -4.87926748722636   -6.25235517322442
H         3.69979971914884   -3.96528835660084   -3.84232722851690
H         3.29722893973675   -3.89597682970600   -5.53609584172782
