35
 energy: -44.219903147494 gnorm: 0.098880424484 xtb: 6.4.1 (025e99ea0bd20707e8cccc6e19fe66a0758c6dd1)
C         0.87742158804211    0.94640786391465    0.27452262805982
O         2.28226479871116    1.00493350808859    0.06555927319917
C         2.74034304416796    0.35881566425393   -1.04950266947242
C         2.08008053388739   -0.07515544270614   -2.19989032331209
C         2.77242752789930   -0.55086287537466   -3.31785764586743
C         4.17346692254161   -0.59079623546440   -3.33728674583771
C         4.87090286012185   -0.06153930947143   -2.24325384234862
C         4.12870396286151    0.26298165746965   -1.09534208491515
C         4.92865647817580   -1.12175158736178   -4.53829569736212
C         5.63071913467636   -2.42186840805534   -4.06360581851481
C         4.55485429007995   -3.36006960267445   -3.49181371978982
C         4.95886445976844   -4.82658820711166   -3.60988309249828
C         5.19074163691933   -5.24763581402606   -5.04804499566517
C         5.30283564095464   -4.02197418735706   -5.93180297406846
C         6.27322490839446   -3.02679903803580   -5.32169490200722
H         0.51424054284653   -0.08343084328627    0.35432313906838
H         0.21928398563088    1.49273567999293   -0.40839216434957
H         0.64169990039068    1.39184049835904    1.24664958642240
H         1.00025317021495   -0.07835549725058   -2.32002341307108
H         2.27418381834639   -0.93500383631917   -4.20620557318940
H         5.95138567705609    0.03781378790295   -2.21600785170508
H         4.46767697823994    0.70800668772485   -0.16456680856699
H         5.66296856218268   -0.36177439592755   -4.84231175847720
H         4.29723693263881   -1.46715473571870   -5.36815634624747
H         6.41094814411974   -2.25610464992557   -3.30172636775990
H         3.58658714259138   -3.22074030316684   -3.98491506023362
H         4.43711447683944   -3.22901405249253   -2.40599718415687
H         4.15077571464210   -5.38854089919625   -3.12431627978915
H         5.93815664884006   -5.07206408814112   -3.17862557706606
H         4.32899537044530   -5.79480508976432   -5.45140655002265
H         6.14131802740477   -5.78650351430396   -5.13185366563532
H         4.33314421173435   -3.54031597466417   -6.09785927742764
H         5.60258084914840   -4.42417550781289   -6.90821905731452
H         6.52226868848723   -2.12139077121773   -5.88428568694595
H         7.18776999155112   -3.58447118969252   -5.07054746454422
