35
 energy: -44.214677840206 gnorm: 0.098809749164 xtb: 6.4.1 (025e99ea0bd20707e8cccc6e19fe66a0758c6dd1)
C         1.54468974551063    1.04243440597305    0.80846978008567
O         2.61291695483183    1.23855854994972   -0.10864598482878
C         2.81369798137764    0.39065460635764   -1.16288171249810
C         3.70294031494910    1.03075561215266   -2.02728211762554
C         4.08461310864752    0.45126198233308   -3.24136855980662
C         3.48735540596703   -0.75475990352841   -3.63338642129097
C         2.42451212869215   -1.27331356031976   -2.88178542458996
C         2.24641083004964   -0.81554322721336   -1.56550250610496
C         3.85359064097265   -1.46058285251679   -4.92270138273418
C         4.86067632003915   -2.63717808461746   -4.82306065987595
C         5.69692383595663   -2.61028403733930   -3.53285926577681
C         6.32554848642817   -3.97742399315263   -3.28066728342837
C         6.70948063498250   -4.48521340889253   -4.65693171487963
C         5.43226482203647   -4.89518243430474   -5.36154850173827
C         4.23282466272827   -4.02348607196389   -5.03635698853208
H         0.57329057784620    0.87687973630814    0.33117357942559
H         1.45801602522222    1.90060607000309    1.48228048181807
H         1.76881576735786    0.20368466163637    1.47575694521802
H         4.03640228167821    2.05120280117280   -1.86006968699828
H         4.75837471380934    0.90065326324564   -3.96873772017025
H         1.90185378779526   -2.16465101901225   -3.21405383927880
H         1.47556422792556   -1.36596867417596   -1.03435287481526
H         4.24478688605849   -0.73842712854865   -5.65390719263683
H         2.89964306444082   -1.91374841576339   -5.22483988739385
H         5.60081104845583   -2.53976183242152   -5.63509876317489
H         5.08598083921928   -2.22561702554017   -2.70891582374807
H         6.48495225861509   -1.87096229888561   -3.73889406833036
H         5.58340802555668   -4.68886602613520   -2.89641327052570
H         7.17968327020894   -3.99569363204774   -2.59119311131702
H         7.44281884076604   -5.29321371639124   -4.53839072708497
H         7.23983929862519   -3.71663043339819   -5.23051489332868
H         5.12013616168489   -5.90998690155344   -5.09207050700252
H         5.51776484042573   -4.96429974211823   -6.45375452774562
H         3.57301530244171   -4.39004355320027   -4.24352501349897
H         3.60688011018862   -3.95923963875726   -5.93887113425512
