35
 energy: -44.228492381023 gnorm: 0.097820445519 xtb: 6.4.1 (025e99ea0bd20707e8cccc6e19fe66a0758c6dd1)
C         1.01804236491251    0.88265042577361    0.53561289671409
O         2.26937919981933    1.28457911638727   -0.00594488700208
C         2.78449442893595    0.55312586359661   -1.04049769829946
C         2.05741371797902   -0.13216917608854   -2.01486599966987
C         2.68712727055541   -0.65666306605902   -3.14794139358614
C         4.08285272781346   -0.57015110218076   -3.24463502154139
C         4.79147112086722    0.12717439492624   -2.25719647769461
C         4.14387616916616    0.80289951632672   -1.20939363688042
C         4.83662051229641   -1.14395174429950   -4.42668167324088
C         5.40596620994930   -2.52766024560133   -4.01470783604026
C         4.36355095259975   -3.61472929247585   -3.70437872854442
C         4.88481552877383   -5.03245322304968   -3.91928220493812
C         5.16748979396680   -5.30274819258102   -5.38433976652909
C         5.68772666291927   -4.02592672354807   -6.01276652117535
C         6.39180665908436   -3.08157840499506   -5.05530196667422
H         0.97369549797286   -0.14389852364584    0.91385483544119
H         0.22914046501494    0.97981656043170   -0.21683931875116
H         0.77443289009939    1.60626323227929    1.32049804719519
H         0.99399606570445   -0.35479528848181   -2.00780662320451
H         2.22870147819825   -1.32159038967449   -3.87779792151056
H         5.86887614201712    0.23631529800821   -2.33029352404285
H         4.68770464542562    1.49089001634739   -0.56891550320740
H         5.54282049308716   -0.36349589843558   -4.74507700376444
H         4.09174398668894   -1.34437953773229   -5.20876244759541
H         5.88708488055073   -2.28255567289788   -3.05286387872771
H         3.50199346127971   -3.40016934185023   -4.34608393238294
H         4.11680759952360   -3.53822562391301   -2.63512633842268
H         4.11367490939160   -5.73880266566356   -3.58613661162297
H         5.75536209309488   -5.10230488640919   -3.25405737992112
H         4.26993790654092   -5.71027381137454   -5.86706625807586
H         5.97705776354269   -6.03702948448804   -5.46451739138364
H         4.85326167623247   -3.48449027882141   -6.47144457622278
H         6.39215260586305   -4.35590113012407   -6.78730021315672
H         6.85629929131436   -2.30279124310617   -5.66851683215005
H         7.14583515202193   -3.70857384335178   -4.55651972773613
