35
 energy: -44.214308827028 gnorm: 0.086441100923 xtb: 6.4.1 (025e99ea0bd20707e8cccc6e19fe66a0758c6dd1)
C         0.85761420619434    1.08643739678099    0.21034277504674
O         2.25979727272077    0.95666107002669    0.01613633391649
C         2.65023848782425    0.29857011273883   -1.11750340014090
C         4.00909844321070    0.10169544026176   -1.36732185444307
C         4.33811793548644   -0.45977326396763   -2.60505847079417
C         3.39845511541149   -0.96429218362914   -3.51466166936845
C         2.06911839563691   -0.97141623599128   -3.07165954430523
C         1.67580105291746   -0.34086967770603   -1.87935632479031
C         3.94047323187460   -1.36546539758951   -4.87109955431259
C         4.93125806895670   -2.55966017686023   -4.84334354007894
C         6.37495202937394   -2.21972158755361   -4.43733574829396
C         7.25703243542366   -3.46422128698901   -4.46889608848016
C         6.53581709425071   -4.73584499905824   -4.87161104005238
C         5.23892779974792   -4.98634669199420   -4.12920501537267
C         4.39615229123215   -3.73008534377551   -4.00351642167754
H         0.47245755363677    1.57952536131148   -0.68818656304659
H         0.67335369786642    1.65711322524421    1.12596768089238
H         0.41936414286439    0.10508721291376    0.41985284582203
H         4.71605006080070    0.39740374728851   -0.59709763754131
H         5.34490184872221   -0.25459023758667   -2.96458481314513
H         1.23357305727973   -1.37611859812383   -3.63391969631912
H         0.60612239759735   -0.19169413600917   -1.76610077492505
H         4.30927339768613   -0.41344459160115   -5.27957005227046
H         3.22119177730366   -1.57700892458570   -5.67393589187183
H         5.04524861399000   -2.95201955885416   -5.86791930114732
H         6.45724271912797   -1.72818343291850   -3.46177368887970
H         6.76184500457348   -1.49892226096652   -5.17272538719392
H         7.73353382321753   -3.56728973894081   -3.48558703423948
H         7.99954326164570   -3.23809161075434   -5.24529655506047
H         7.22548862369063   -5.58670621778924   -4.80026853651924
H         6.27536292888549   -4.61020079982752   -5.92867060629798
H         5.39160470400445   -5.50612262039151   -3.17715798878362
H         4.65508806646061   -5.67789738824446   -4.75040567339923
H         4.26743909465585   -3.38822727474767   -2.97159525604408
H         3.38250454370529   -3.96896213284357   -4.35837144983150
