35
 energy: -44.221495900772 gnorm: 0.086728515877 xtb: 6.4.1 (025e99ea0bd20707e8cccc6e19fe66a0758c6dd1)
C         1.57379724622907    1.14677676369469    0.92749376708189
O         2.56574322079471    1.52668570900697   -0.01716899897011
C         2.93934610440831    0.77053260481274   -1.09388642920331
C         2.16873574312821   -0.23725433316538   -1.67543125600557
C         2.51012593398271   -0.85658119151729   -2.88182249012832
C         3.74575987096878   -0.54251156091448   -3.46444806425979
C         4.57566423969074    0.36411160491661   -2.79159524938184
C         4.17911746191029    1.07786384974990   -1.64827428826231
C         4.22210383880221   -1.40140749281134   -4.61772232694176
C         4.67080095833474   -2.79181895326481   -4.09431709212121
C         3.84776506527682   -3.91065487105262   -4.75421931263964
C         4.58507323151423   -5.23609825649311   -4.58863578500707
C         5.90427125070511   -5.24112255229930   -5.33633165292264
C         6.56455245871736   -3.87777005121100   -5.30259246409803
C         6.17502158863384   -3.10391614352561   -4.05612682484026
H         1.27109776380641    2.09826813207986    1.37679717684357
H         2.05551800489898    0.52316082908890    1.68712530674260
H         0.72393453420034    0.63006724863672    0.46950860276630
H         1.29380686255357   -0.45849538684364   -1.07043441734482
H         1.79566529743368   -1.50052250110020   -3.39158584998698
H         5.60518157468904    0.51918282029418   -3.09835812646287
H         4.87802331784962    1.59790056552771   -0.99990325751495
H         5.08912793640213   -0.87838622374251   -5.04658511601882
H         3.38919587101635   -1.49754443695157   -5.32742978453230
H         4.33071274704737   -2.66267602490382   -3.05299229270534
H         3.64112599496166   -3.77957852106141   -5.82203115670057
H         2.86402218902632   -4.02572064428352   -4.27563223849057
H         4.00471251122259   -6.12958437238274   -4.85214550069502
H         4.74539641194473   -5.37683866845545   -3.51172202012684
H         5.77860665479139   -5.51138552827219   -6.39267805409371
H         6.64955951040179   -5.98983755623640   -5.04483719862821
H         6.23120714092668   -3.26160816926777   -6.14467098207237
H         7.65936295121188   -3.94007018876207   -5.35269371641808
H         6.69985922597926   -2.15118251008172   -3.93308456351647
H         6.29412863963714   -3.69620706769119   -3.13663188662056
