35
 energy: -44.221067309319 gnorm: 0.097318400449 xtb: 6.4.1 (025e99ea0bd20707e8cccc6e19fe66a0758c6dd1)
C         1.08035158927202    1.23149055839016    0.62328904813905
O         2.23513762233717    1.64748679239620   -0.09371285516944
C         2.80227483417362    0.74874124516012   -0.95468840555409
C         2.22676475168882   -0.38890583078101   -1.52232959459917
C         2.82687415900635   -1.04985547910405   -2.59866927282742
C         4.08801641832192   -0.66430065403797   -3.07380210344976
C         4.66495410248803    0.46884144953785   -2.48510045457708
C         4.03874106300436    1.16732042478662   -1.43922340464517
C         4.67055504993422   -1.32224030137524   -4.30766250426105
C         5.11183144141975   -2.78749440656145   -4.04914419586102
C         4.06184614131389   -3.91085349589976   -4.06489367200090
C         4.70554252915970   -5.25464459592540   -4.39310372636793
C         5.48151084803266   -5.26961849527605   -5.69579582995459
C         6.10903560471621   -3.92442775757472   -5.99995731057303
C         6.43518096690235   -3.11244935051965   -4.75956179846795
H         1.21012468873517    0.45230787744588    1.38149063466450
H         0.31565564556907    0.85371970883249   -0.06265635821613
H         0.59015434661898    2.06661487756136    1.13444440854215
H         1.26307510104951   -0.65044827409473   -1.09411570323906
H         2.30221427281973   -1.73397324181582   -3.26326538665201
H         5.65473697138693    0.83750497747572   -2.73504758132422
H         4.56068199908846    2.01731374719168   -1.00982662240296
H         5.50455291477123   -0.76813450461774   -4.76221684216180
H         3.82451390011008   -1.32890769759237   -5.00825696151841
H         5.47684779372474   -2.76955644915830   -3.00840574863682
H         3.30493297767677   -3.69387349161564   -4.82653990762586
H         3.60674575925717   -4.03175813859856   -3.07076014352105
H         3.90866634433860   -6.00808225212201   -4.43661716221530
H         5.30064750182911   -5.48811605391939   -3.50058157442512
H         4.78590280932352   -5.54038883845194   -6.50047853978666
H         6.27803603610766   -6.02170942858662   -5.66571899032741
H         5.40398180487190   -3.36003704476914   -6.61982266485279
H         7.02356474761578   -4.10346258276855   -6.58011628462910
H         7.07031606716200   -2.22494826060999   -4.84465314352033
H         7.01151179356086   -3.79205776584126   -4.11423928371585
