35
 energy: -44.228797949553 gnorm: 0.086045711055 xtb: 6.4.1 (025e99ea0bd20707e8cccc6e19fe66a0758c6dd1)
C         0.99154901538218    1.14638897938892    0.38760452075739
O         2.33053239599082    0.68249452698193    0.27535119474854
C         2.87810566017511    0.36037264265369   -0.93587465665826
C         2.23912036934736    0.46285029863426   -2.17234760319056
C         2.87790656816939    0.01328361833367   -3.33223329584232
C         4.17748449118780   -0.50761333583472   -3.26406366939663
C         4.85048887559837   -0.56599501390163   -2.03642593116264
C         4.19177363934266   -0.09865130818236   -0.88683533626932
C         4.79241850738900   -1.05183024847401   -4.53698606672613
C         5.18391244860212   -2.54462227090067   -4.37318542866759
C         3.90634699999178   -3.39636281796585   -4.28941548507492
C         4.22425845161535   -4.87864450520478   -4.11732621781796
C         5.71249560125455   -5.11032105995885   -4.29292214819914
C         6.21448557137697   -4.44776683727463   -5.55975584781314
C         6.08383704526656   -2.93542517477850   -5.55595830435447
H         0.21499599118827    0.40689280481853    0.16636447439952
H         0.83544842485594    2.14398082571504   -0.03481104486743
H         0.94878473510606    1.26913463065890    1.47485356872904
H         1.23591759106809    0.86644021431284   -2.27802959486376
H         2.39945837842481    0.05885435855218   -4.30895420253008
H         5.87072170382941   -0.92926985905864   -1.96422591008082
H         4.62704215873851   -0.23917563467962    0.09809451318858
H         5.72370260668141   -0.53322961440983   -4.80711313506917
H         4.23025590615507   -0.87081277836105   -5.46319800186253
H         5.82397941263174   -2.64372749215977   -3.48033176852560
H         3.46032583237111   -3.25962408791923   -5.28061197990519
H         3.26335675601829   -3.00959030763723   -3.48504844284070
H         3.74721003778519   -5.45297702876906   -4.92177655189621
H         3.80350533545322   -5.11432357591908   -3.13108241715194
H         5.78878092251283   -6.18534503685915   -4.50078120124058
H         6.35450901634637   -4.75595240549875   -3.47852703743939
H         5.61388222178374   -4.92673064896122   -6.34061440111135
H         7.22967603641131   -4.84048643607272   -5.70174561662575
H         5.71823577944336   -2.49661046835653   -6.48980662619497
H         7.06334292194850   -2.45917348610311   -5.40033524281989
