35
 energy: -44.225610848036 gnorm: 0.089468705533 xtb: 6.4.1 (025e99ea0bd20707e8cccc6e19fe66a0758c6dd1)
C         1.11350235042120    0.50907108353776    0.47086471940924
O         2.23684816803037    1.17462594678331   -0.09110172281705
C         2.94075887953936    0.54604019724025   -1.08107988222076
C         2.21642752639651   -0.19629409283780   -2.01486420219814
C         2.90217447306698   -0.72452132337876   -3.11314466633889
C         4.28586564398757   -0.56475476259441   -3.27048798664450
C         4.97533790213618    0.23393122713918   -2.34844326523712
C         4.31412256346780    0.73331876215859   -1.21385927541229
C         5.12916356173588   -1.11943011020962   -4.40001497704562
C         5.64485376744097   -2.55164170882628   -4.09775725190331
C         4.50009656886971   -3.34001347457962   -3.43999304245710
C         3.70354131477232   -4.11212504078694   -4.48745896749283
C         4.63201500252215   -5.11766377433905   -5.14028837633627
C         6.06674197586623   -4.66006100100811   -5.30761400163489
C         6.15020772808185   -3.14859244939407   -5.42056111341654
H         1.20338857096740    0.76366066308142    1.53196837736981
H         1.17862391147024   -0.57504148697318    0.33503055796199
H         0.18803582936359    0.89241029965299    0.02863340746188
H         1.16691769112430   -0.47251488254064   -1.96289774868139
H         2.35640135556553   -1.33553655406393   -3.82991882987231
H         6.04559045860148    0.39406796951928   -2.43194289554620
H         4.75377094641464    1.44118526773912   -0.51749234667274
H         5.98684274867760   -0.45173460354030   -4.56667165812291
H         4.50152046011852   -1.25643905729730   -5.29105670632538
H         6.48863698572279   -2.52903189205237   -3.38767704435676
H         3.77961887791605   -2.70290893349716   -2.91548131439316
H         4.97970479659351   -4.01407528413358   -2.71497415113924
H         3.24356240282382   -3.39695985094387   -5.18138369553996
H         2.92875550275487   -4.71126001863550   -3.99147623860684
H         4.39936217601088   -5.35537409958302   -6.18626536017293
H         4.51663380896911   -6.04216872546720   -4.56324804799932
H         6.51318407379468   -5.01956826772679   -6.24105643449387
H         6.67691112824862   -5.01150140265223   -4.46548294992346
H         5.47199241455388   -2.82727461222631   -6.21747651608771
H         7.19584988873061   -2.85502637181818   -5.59639455866292
