35
 energy: -44.226673305853 gnorm: 0.080462637053 xtb: 6.4.1 (025e99ea0bd20707e8cccc6e19fe66a0758c6dd1)
C         1.06923821258045    0.40504106554185    0.36326875208588
O         2.33442995825585    0.97038707719300    0.04648947533005
C         2.95271230875672    0.44923381604360   -1.05659405259403
C         2.15600480426589    0.06316690111917   -2.13542615884862
C         2.74543464244131   -0.41332133867744   -3.31059603860219
C         4.14285940911504   -0.47403924353193   -3.40225230299380
C         4.91378613450885   -0.05935820442900   -2.30810909589924
C         4.33930597058813    0.32521158635782   -1.08501750261434
C         4.82014950126690   -0.99703854178173   -4.65221117738368
C         5.42341276297976   -2.35266039364775   -4.19736063121280
C         4.30047742446239   -3.22121606862712   -3.60636138626236
C         4.90640528016563   -4.61528270072840   -3.47494194822575
C         5.08365537884388   -5.23336674536910   -4.84822716533676
C         5.35738616748657   -4.20694811294660   -5.92867887519275
C         6.17203477815294   -3.07566091614930   -5.32801450796340
H         0.94587958071271    0.31815239243033    1.44773606914763
H         0.88689894989605   -0.58676886020597   -0.06223948938992
H         0.34978787546954    1.14252920968038   -0.00755225464125
H         1.08602119925818    0.24410532453372   -2.08189401466866
H         2.26546166680399   -0.70406426646616   -4.24337017289502
H         5.99396779430413   -0.03409548511380   -2.41119090944477
H         5.00447225118203    0.44904028558727   -0.23559838560790
H         5.46765428507073   -0.22999964885836   -5.10120361727460
H         4.09178514992906   -1.23369835499770   -5.43970097119442
H         6.15707271414360   -2.25183015855362   -3.37988184601064
H         3.41878142810751   -3.20984407876352   -4.25642730672100
H         3.97850863952161   -2.80742138947204   -2.63933200022202
H         4.33000656181296   -5.26964501445599   -2.80849775955104
H         5.90928721819900   -4.56211390133058   -3.03148333538520
H         4.15209881234355   -5.79148041658867   -5.00764134445780
H         5.89828237574630   -5.96624818954724   -4.83193576337587
H         4.47076437249288   -3.70612120749618   -6.33234333968328
H         5.83444419901757   -4.59432644789832   -6.83826950749189
H         6.35757607278518   -2.30764640038070   -6.08565786367709
H         7.16259486559793   -3.46646869149405   -5.05138124035589
