35
 energy: -44.223317847836 gnorm: 0.083566206756 xtb: 6.4.1 (025e99ea0bd20707e8cccc6e19fe66a0758c6dd1)
C         1.82830581055183    2.03115045716894    0.63067465239877
O         1.37621426859280    0.98106627800542   -0.21408083419057
C         2.23252406105786    0.43398850464255   -1.12956241591000
C         1.63489507646863   -0.13833353004825   -2.25337572340701
C         2.41883421788408   -0.75488108497675   -3.23358048920578
C         3.80754493792144   -0.89452590401051   -3.10371372337386
C         4.38764041237708   -0.35259683968856   -1.94905365312297
C         3.60758803741153    0.28436640287771   -0.96942588642966
C         4.69273252778446   -1.42751206692769   -4.21142126096050
C         5.66541284332058   -2.62092368095927   -4.01600407970766
C         4.65000180106776   -3.72116639103104   -3.66520608861054
C         5.29019632326786   -5.06899438712026   -3.98356449268901
C         5.53146897993095   -5.23799137077243   -5.47104064171163
C         5.71914520428447   -3.90382298300275   -6.16430249476725
C         6.49923252797566   -2.96729801396254   -5.25951218363073
H         2.37269105294792    1.73822148748539    1.53437464719076
H         0.93081989057177    2.58992975675617    0.91400576647893
H         2.54655380472078    2.69164972419090    0.13381822976773
H         0.55117842213857   -0.10226413908771   -2.32212561123774
H         1.90413873751002   -1.34708386936099   -3.98813832623985
H         5.44196537426811   -0.56696701925917   -1.80587267607297
H         3.95364957509056    0.65582878452815   -0.00945208817031
H         5.28549182862447   -0.61651324048617   -4.65877194292385
H         3.95723945770459   -1.63195705279327   -5.00130407903658
H         6.32301345747302   -2.41383052496506   -3.15497616361590
H         3.72838063006248   -3.52485405878036   -4.22393566331322
H         4.33215957372890   -3.59379073927582   -2.61984130613158
H         4.76361174012423   -5.93235609693727   -3.55708048272750
H         6.23298369165199   -5.08901481550521   -3.42142055750517
H         4.78648580705313   -5.78687249891202   -6.06132105420741
H         6.43738762035112   -5.85460206884045   -5.48106205978979
H         4.76946726288331   -3.39681109893574   -6.36659325699995
H         6.26436901291536   -4.00922768155916   -7.11120391788151
H         6.87810995192129   -2.10476075499732   -5.81698567253788
H         7.38750949865243   -3.51597635897067   -4.91255099768072
