35
 energy: -44.220619534749 gnorm: 0.089898750033 xtb: 6.4.1 (025e99ea0bd20707e8cccc6e19fe66a0758c6dd1)
C         2.53964438199766    1.12425833709396    1.09957832230920
O         1.81895326150605    0.65372854837029   -0.03174011208143
C         2.40413535542074    0.32229839000250   -1.22269898786627
C         1.70540567181322   -0.44771412651323   -2.15357320607892
C         2.36153874274226   -0.85023080418980   -3.32103308445255
C         3.68060357676270   -0.47624533510821   -3.61272876157443
C         4.32179509060773    0.36855634441804   -2.69696606015768
C         3.70620520109908    0.73755396239234   -1.48917290747414
C         4.38957636268681   -1.10983343714045   -4.79195352328270
C         5.06501413620836   -2.46836048739501   -4.46528206007163
C         4.00364984627240   -3.46979324028813   -3.98021389586404
C         4.79156333117581   -4.68621727846657   -3.50340543626486
C         6.10999910353913   -5.01764207181957   -4.17515128704759
C         6.47445608828532   -4.36879844868235   -5.49500457690660
C         5.75631444534974   -3.04867316700681   -5.70901995005334
H         3.52202048132336    0.64494531067297    1.16308089460069
H         1.92965891070366    0.78276268997484    1.94177203547917
H         2.62818510215762    2.21473285223547    1.14465202189948
H         0.69170065581033   -0.74532832221504   -1.90000415984729
H         1.94967802128354   -1.52495593755472   -4.06942459359948
H         5.26612250533761    0.80949788714715   -3.00007129943510
H         4.31597427388478    1.30907122656558   -0.79574499035705
H         5.21566043149651   -0.48106592068424   -5.15450261701431
H         3.61718715519024   -1.25239437205425   -5.55990792867147
H         5.83644757107862   -2.37031943659505   -3.68299462602992
H         3.35022180150939   -3.68956182712283   -4.83158714592736
H         3.44825145900426   -3.02175523032394   -3.14305779318072
H         4.16574070800265   -5.56019121330712   -3.72496577201897
H         4.81588303533489   -4.66441865960210   -2.40605042756398
H         6.04034796400801   -6.10051672891699   -4.34017426184849
H         7.02768119907558   -4.87439210296360   -3.59348404372189
H         6.27366222807981   -5.09094980149560   -6.29378492502874
H         7.55942341939507   -4.26858551455464   -5.62843888658467
H         4.94656863243240   -3.16155168486463   -6.43693854460789
H         6.44452468346280   -2.30261543669605   -6.13355557911934
