35
 energy: -44.225239505050 gnorm: 0.094659203481 xtb: 6.4.1 (025e99ea0bd20707e8cccc6e19fe66a0758c6dd1)
C         0.72694226339668    0.98868987906376    0.17800080641794
O         2.13943891928408    1.03715938247058    0.02575336446277
C         2.64767752836759    0.43346718480526   -1.09134838125125
C         2.02765405448721    0.20615395439114   -2.32080712868540
C         2.77216503044705   -0.30781583761830   -3.38712382283442
C         4.12053548364984   -0.67870013981218   -3.29107449306871
C         4.69247729904003   -0.46063077600897   -2.03061185805828
C         3.99890923471410    0.12480625762973   -0.95818411715391
C         4.86959969600310   -1.23679367647187   -4.48358517610528
C         5.79054073258556   -2.43833863630747   -4.14199552098947
C         4.97617330696919   -3.40438715298293   -3.26552030789375
C         5.39135109176822   -4.83914741207657   -3.57685905204477
C         5.15472891080115   -5.19129007502448   -5.03266235562441
C         5.06498054720789   -3.99010413485048   -5.95186702274880
C         6.14963283634409   -3.02081139099067   -5.51797561571336
H         0.41818953313967   -0.04180732016080    0.38192145524657
H         0.35269725167957    1.47657498062014   -0.72748282264699
H         0.61327540172902    1.59840817584901    1.08040272061837
H         0.95564111211114    0.23816082771290   -2.49468389444428
H         2.24100589990439   -0.49792129983493   -4.31809266896953
H         5.72885195169279   -0.68420761914580   -1.79823831522616
H         4.62492044846565    0.31971025415194   -0.09249654745077
H         5.41999970429374   -0.35607374740385   -4.84496803143412
H         4.08489321806563   -1.52532886460835   -5.19607788581675
H         6.74410435804070   -2.05114176013953   -3.74514515514580
H         3.91856111619011   -3.24226472020975   -3.50062799301295
H         5.14291458298637   -3.14222686825680   -2.21029279706715
H         4.93539535506525   -5.56158322261694   -2.88782767234236
H         6.44945165895493   -4.91306928337213   -3.29363936633704
H         4.19973859384965   -5.71609798073040   -5.16408360044885
H         5.98302042435433   -5.85124899707849   -5.31441606909847
H         4.12385790386050   -3.45329202119548   -5.79064753873597
H         5.18684845663772   -4.42152640269520   -6.95387725128991
H         6.32385828199020   -2.19533378135635   -6.21549087177143
H         7.09253882989881   -3.58766891659538   -5.52614899155719
