35
 energy: -44.223495962799 gnorm: 0.096982687171 xtb: 6.4.1 (025e99ea0bd20707e8cccc6e19fe66a0758c6dd1)
C         1.04050274819691    0.94922712446321    0.46320086789652
O         2.28492200730551    1.39368195636709   -0.06078004028501
C         2.82663735076368    0.59598468023567   -1.03077520610144
C         2.13297178317498   -0.30378947855089   -1.84127122055260
C         2.63549943679432   -0.87649004594876   -3.01386358783432
C         3.98396133562584   -0.62916214413479   -3.30603293950601
C         4.69088748102464    0.24075360439706   -2.46523582820739
C         4.15146209385865    0.89030151938983   -1.34230118271281
C         4.88409835011194   -1.20824712392381   -4.37797569407109
C         5.36981109535361   -2.62309512728891   -3.96467865927117
C         4.21743507040332   -3.62582005462563   -3.78797253804616
C         4.80076548426818   -5.03041961738337   -3.90908035760886
C         5.19075707905568   -5.15987379139001   -5.36870563276952
C         5.77933534055464   -3.92758420616478   -6.02511835332094
C         6.44900737090712   -3.07972946506604   -4.95884330720373
H         0.98462537527191   -0.12981896267818    0.64032685839046
H         0.21623241429448    1.25764859147352   -0.18752673859037
H         1.01288466129650    1.41257299074026    1.45494358698951
H         1.11405798023675   -0.60033258025039   -1.60814854679109
H         1.99059752864835   -1.58207837166080   -3.53465120264611
H         5.75459095476920    0.37159420483693   -2.63691040474814
H         4.82554656748221    1.36005060875771   -0.63220365341683
H         5.68556434532535   -0.46114233370412   -4.47120668292248
H         4.36205048084642   -1.45593179328376   -5.31220318119421
H         5.77412848972534   -2.56617442115619   -2.93999202284030
H         3.45319153571972   -3.49857420153206   -4.56246796361315
H         3.77215744216254   -3.43530263984203   -2.80031535291847
H         4.09466123320388   -5.85838477725153   -3.76602841912515
H         5.67753670059790   -5.07571841356942   -3.24993325967126
H         4.36609664253452   -5.52536226259997   -5.99404932132683
H         5.94709175379240   -5.95114918425765   -5.42198675332190
H         4.95937745444880   -3.28672842168700   -6.36694246868554
H         6.46906355054095   -4.21246893347807   -6.83017558542620
H         6.94725425494616   -2.21316230862578   -5.40505707605423
H         7.24246994322059   -3.66445845795194   -4.46999249009472
