35
 energy: -44.221556144880 gnorm: 0.093297079040 xtb: 6.4.1 (025e99ea0bd20707e8cccc6e19fe66a0758c6dd1)
C         0.73181612578432    1.56579687586990   -0.07994324360353
O         2.05209739588263    1.09923834280577    0.16471137345968
C         2.73502049066752    0.40086622401591   -0.79265977325127
C         2.15358545049595   -0.42946340186401   -1.75190701050879
C         2.93243867339369   -1.01007206014924   -2.75777682908504
C         4.30210818144480   -0.73008272420056   -2.86022161487133
C         4.85697858252976    0.13672219246928   -1.90932423244921
C         4.10389242260284    0.65129190066850   -0.84070189280560
C         5.12669874730741   -1.20405052805194   -4.03922638114294
C         5.54985380932867   -2.69712644748267   -4.02543305820627
C         4.34647806356639   -3.63396146031088   -3.82825343432263
C         4.90066410184390   -5.00871249345717   -4.18988700315577
C         4.93943854235492   -5.18802831967772   -5.69511128784605
C         5.56693141495081   -3.92122451227830   -6.24036394220944
C         6.38010280731853   -3.10391962808808   -5.25293000957841
H         0.09965477062900    0.68288742937309   -0.22022612833065
H         0.71594186106333    2.26976927707783   -0.91789471426489
H         0.44614741209789    2.06450340074008    0.85209267755267
H         1.08012251383694   -0.56969291923136   -1.65980741190591
H         2.37661138611114   -1.62359937040905   -3.46461017059852
H         5.92358928241571    0.28667587888365   -2.04315997142036
H         4.61524314735041    1.21622434241161   -0.06696785837936
H         6.03780869161480   -0.60090631091080   -4.16292375952171
H         4.53832540420904   -1.01412768408061   -4.94719597953129
H         6.12675220731380   -2.86537000059869   -3.10045869873156
H         3.51006074249243   -3.37342085813955   -4.48599769305239
H         4.01195079238719   -3.63553075055498   -2.78033893020645
H         4.34374140795852   -5.85866799539698   -3.77517489372115
H         5.87951958191103   -5.15842366122611   -3.71587945219444
H         3.91262162294370   -5.28202188705201   -6.07129423502159
H         5.40295548536696   -6.16814229120680   -5.85488115523051
H         4.92460978924912   -3.16677854955002   -6.70738108786661
H         6.18096164421217   -4.30765255470927   -7.06416106706418
H         6.65238522346034   -2.21914030989954   -5.83715870149972
H         7.38154478459249   -3.46068473296673   -4.96955994681148
