35
 energy: -44.222804040229 gnorm: 0.094956001239 xtb: 6.4.1 (025e99ea0bd20707e8cccc6e19fe66a0758c6dd1)
C         0.91144102529241    1.04940269046754    0.44960357356119
O         2.19194462473033    1.39817062050905   -0.05965749557493
C         2.82547901375424    0.75809405590972   -1.08902781067702
C         2.17100953822065   -0.29901289610019   -1.72295514135154
C         2.74681397358268   -1.02322705187886   -2.77150460361275
C         3.99508385024544   -0.63058699742903   -3.27403783117602
C         4.66047292860470    0.37236274337194   -2.55655126941597
C         4.10956712175778    1.11083425879963   -1.49587362051544
C         4.72249712452951   -1.30788415313437   -4.41718517180289
C         5.30400775132187   -2.64133693093774   -3.87656028155060
C         4.30575453809794   -3.79768680869611   -3.70049687741453
C         4.83658279642945   -5.17074763433313   -4.10145415187973
C         5.15576876005898   -5.14714825878402   -5.58365560925638
C         6.08368129520010   -4.00229662364256   -5.93598033297721
C         6.46836935243325   -3.14482745726802   -4.74391385448599
H         0.89201358017923   -0.00900520065556    0.72930281383344
H         0.13773564531453    1.21652381642556   -0.30633446245475
H         0.79133732910020    1.72210364744611    1.30520528802584
H         1.23098764010089   -0.73675948431459   -1.39860024847213
H         2.05680158238512   -1.76728322481490   -3.16550513914619
H         5.63261783694406    0.72113274864550   -2.89024314033050
H         4.61802890140135    1.95738635908623   -1.04408966030390
H         5.53580955289367   -0.58266255488084   -4.56477197966014
H         4.04032835110930   -1.44105026163763   -5.26781742412039
H         5.77849835055746   -2.28506766988882   -2.94670754420826
H         3.52087462600699   -3.52662581852782   -4.41505430491497
H         3.99940925503604   -3.72602774155762   -2.64643174005612
H         4.08637360215249   -5.92403024686029   -3.82882831506419
H         5.76411072660085   -5.44854876427758   -3.58398616838824
H         4.19698538135419   -4.99680002423183   -6.09632629099320
H         5.64926172536195   -6.05547079620525   -5.94754106647714
H         5.54141665685584   -3.44267676891317   -6.70581504011270
H         6.94786211232109   -4.49384755054549   -6.40135186158217
H         7.03862788741929   -2.29596051713528   -5.13445891366786
H         7.13141824162305   -3.75962365496651   -4.11713017809002
