35
 energy: -44.215042230267 gnorm: 0.084524088606 xtb: 6.4.1 (025e99ea0bd20707e8cccc6e19fe66a0758c6dd1)
C         0.90063773224847    0.77676072552637    0.46537449129342
O         2.22626940671959    0.36442356805373    0.15983544116798
C         2.48071314199004   -0.03498406830011   -1.12328536263862
C         3.80890403798016    0.24237704429835   -1.44985698579505
C         4.44959051371934   -0.21106545859616   -2.60718303153663
C         3.64453041871259   -0.67876989323301   -3.65504481583221
C         2.26935877002674   -0.77422206173711   -3.40358993841156
C         1.67045042573994   -0.46479042704714   -2.17093618052171
C         4.18408075062839   -1.14045735771381   -4.99309467597482
C         4.86067759186381   -2.53713053528719   -4.99994354002765
C         6.38502052734582   -2.35748769937438   -5.09353785263692
C         7.13315774551285   -3.49233315080510   -4.40053142684190
C         6.38840892105671   -4.80828486260801   -4.51445266250088
C         5.04202774419419   -4.79472738465506   -3.81953283297290
C         4.53966402472457   -3.36421572817543   -3.74518331316771
H         0.55715909543212    1.42214010997628   -0.34969865427597
H         1.01306031443026    1.26644435059032    1.43777508477342
H         0.16956568428935   -0.02499131396669    0.61279597861354
H         4.14289632246490    0.85362912712874   -0.61601684245659
H         5.53251298549605   -0.26978388306182   -2.70101352657682
H         1.64997860501855   -1.12392964498034   -4.22342486422228
H         0.64286938606772   -0.67238913711646   -1.88761206222083
H         4.94357650542545   -0.42839434315883   -5.34712543853805
H         3.36818835017250   -1.18283978285341   -5.72738752277009
H         4.51165603270751   -3.07253460771959   -5.89895502291567
H         6.66714007491720   -1.34963276713310   -4.76990249464398
H         6.68883647706963   -2.38235197043879   -6.15047370809825
H         7.24562473557725   -3.25766752737558   -3.33429665132809
H         8.13412839939486   -3.61772143233118   -4.83364823640619
H         6.89489713190390   -5.68981243862070   -4.10083422625051
H         6.18278089232527   -5.09968224832353   -5.55069705512450
H         4.98326597900333   -5.23380875920086   -2.81772177488455
H         4.35851837131069   -5.35348878097220   -4.47191469696207
H         4.93455995311087   -2.79302805956871   -2.89895806425121
H         3.45135732426305   -3.43443680725812   -3.59984407829582
