35
 energy: -44.219393822979 gnorm: 0.087652444086 xtb: 6.4.1 (025e99ea0bd20707e8cccc6e19fe66a0758c6dd1)
C         1.34306840206944    0.67269050143725    0.74673761552934
O         2.22758535663942    1.27846548136014   -0.18671930350709
C         2.53953171271528    0.57981991714339   -1.32040840546397
C         3.80084550376508    0.85768896889926   -1.84912918919432
C         4.25149485834705    0.11865679402960   -2.94741858533059
C         3.42960483042085   -0.81535381960513   -3.59317762111701
C         2.19189052370464   -1.09736929620354   -2.99990821799852
C         1.73699992523383   -0.42587362159535   -1.85271917478206
C         3.95714963519773   -1.39155163529559   -4.89099895236173
C         4.92550066607996   -2.59990290921100   -4.99448774190831
C         6.07131115324015   -2.44647984178816   -3.98046963002514
C         7.13456634228934   -3.53761668900282   -3.89830929944003
C         6.65686233167352   -4.80725708524180   -4.57593014177986
C         5.18164183070905   -5.08870639766747   -4.37505579758206
C         4.27551916563661   -3.98909940375561   -4.89856994658342
H         1.37783111882443    1.15190506070335    1.73059803045114
H         1.74246441313645   -0.34228321462360    0.83785833571029
H         0.27219843858461    0.58276608428941    0.53660221395928
H         4.26847465415049    1.72800115729734   -1.39707934235513
H         5.27499098455453    0.30192317584181   -3.26966432700890
H         1.40212168761830   -1.62939320405290   -3.52074633680081
H         0.77039967014370   -0.64659565591433   -1.40970860219203
H         4.48408608004385   -0.56661883140121   -5.39202716623794
H         3.10047395749145   -1.70258210718168   -5.50421147240721
H         5.40563701517888   -2.52515625464432   -5.98472879772932
H         5.64502530927859   -2.27342936964129   -2.98626802688001
H         6.54873072055284   -1.48587094661494   -4.22406136620097
H         7.39809986939054   -3.68393127446323   -2.84298207702036
H         8.06763708258976   -3.18448428602119   -4.35649178194004
H         7.21805139588696   -5.73123960409890   -4.38612874921555
H         6.68066819509486   -4.60915714747351   -5.65351424062667
H         4.96964994671045   -5.27564913539369   -3.31676344802715
H         4.97397245123560   -6.05863233453914   -4.84528829987620
H         3.42096476832053   -3.97775706329511   -4.21453521142658
H         3.83023880112757   -4.17816719669195   -5.88672216377609
