35
 energy: -44.213728902000 gnorm: 0.107929250138 xtb: 6.4.1 (025e99ea0bd20707e8cccc6e19fe66a0758c6dd1)
C         1.58571078727607    1.03980743047039    0.88718719291107
O         2.71687561179908    1.37265027158109    0.09323683940681
C         3.01211139571520    0.68049891183615   -1.04887936133483
C         2.02779081356642    0.00671213066380   -1.77330577547841
C         2.29781529888503   -0.72923565274692   -2.93130426578182
C         3.61278733002801   -0.65798312914763   -3.41157001826902
C         4.55877257699485    0.15842842113721   -2.77751806778907
C         4.29726251863355    0.82042417992087   -1.56621770032089
C         4.09926537926293   -1.50760167049973   -4.56748299267526
C         4.65095129049645   -2.81799476884569   -3.94535858098256
C         3.94764761662201   -4.12536391918348   -4.34636069026717
C         4.97712219160341   -5.25137328833590   -4.33511746530981
C         5.89544646650849   -5.01883773589284   -5.51916371224985
C         6.33836184596053   -3.57245347034873   -5.60656036715018
C         6.14691842737879   -2.82943564817093   -4.29677614841132
H         1.23222412071958    1.98424887909922    1.31370083208844
H         1.93678317807772    0.31946843303152    1.63274182435791
H         0.75390833983729    0.63165889486647    0.30364179690481
H         0.96651732628335    0.20115613916200   -1.64540169617719
H         1.64537243321331   -1.43698115694484   -3.43962278951443
H         5.61821868194005    0.23891391528664   -2.99922179890234
H         5.08883371297745    1.33796468761187   -1.03249543423032
H         4.83162671044632   -0.89641250703804   -5.11456618730210
H         3.28290357272843   -1.80144265000464   -5.24118437870795
H         4.59226360673633   -2.76052686161746   -2.84538202473142
H         3.40659101590105   -4.06521594904200   -5.29701458604040
H         3.15032741444396   -4.34085595569288   -3.61980756335452
H         4.54421322548413   -6.25949878389783   -4.36420679906338
H         5.43784315432173   -5.19717779097823   -3.34010304988597
H         5.38074640746398   -5.47464018708693   -6.37475085683927
H         6.78416780408478   -5.64315064067815   -5.37285736722437
H         5.62728740131570   -3.10670429721733   -6.29744504610101
H         7.34271382311988   -3.48907337799699   -6.04167681712182
H         6.62856310725905   -1.85435753401538   -4.42142123278041
H         6.78772101345969   -3.36873487566301   -3.58333774114425
