35
 energy: -44.225136247944 gnorm: 0.094089756353 xtb: 6.4.1 (025e99ea0bd20707e8cccc6e19fe66a0758c6dd1)
C         2.66775127581012    1.27394081712828    1.07760210811774
O         1.94271363749913    0.95502094749004   -0.10277321944033
C         2.53456776263372    0.37204448463370   -1.18928792907977
C         1.76259510497802    0.32628877017199   -2.35102537408515
C         2.24176407884644   -0.29869881121484   -3.50656874433430
C         3.58890593422810   -0.68567726945116   -3.52500894818331
C         4.36022096901934   -0.65677425376983   -2.35553235440556
C         3.77763190906233   -0.25358811010465   -1.14231127717458
C         4.23472187925162   -1.14303959560838   -4.81667021212734
C         5.01960285084146   -2.44454590612761   -4.50271259812245
C         4.07461108356805   -3.48068085388689   -3.87178647200143
C         4.66242521587189   -4.88856447552071   -3.88519033104281
C         6.15862376515139   -4.78213210120246   -4.10749602717668
C         6.47260020790061   -4.29863964083865   -5.50874314540986
C         5.65343841174880   -3.04690600456649   -5.76642050254826
H         1.86097804828425    1.62816757301237    1.72758420233112
H         3.41093550007451    2.06344205030421    0.92808016591886
H         3.20551229879654    0.44287978255499    1.54574354418013
H         0.72013045493968    0.63187002160346   -2.36991691023133
H         1.60497970183357   -0.29713969836195   -4.38944831439695
H         5.42872726624977   -0.84743123361816   -2.35469048728301
H         4.40043043979782   -0.42011546705357   -0.26842157635743
H         4.93560070547465   -0.39011307367056   -5.20535498378287
H         3.47337538098682   -1.39492414131386   -5.56738211581491
H         5.86832139870281   -2.16932655797987   -3.85415545698455
H         3.19776677056369   -3.44417658426848   -4.52746500916591
H         3.84241307372116   -3.11351115137897   -2.86118948832516
H         4.10860247117240   -5.56641540245483   -4.54728689889655
H         4.53364273308950   -5.31700086478530   -2.88263760087764
H         6.52453232479151   -5.81285490871489   -4.01572017254543
H         6.71399150910999   -4.17067317282809   -3.38729993368858
H         6.28821043650421   -5.09452504063194   -6.23842639135962
H         7.53315449667472   -4.03112716706297   -5.41566717644320
H         4.89339023497936   -3.16073997914128   -6.54594851259196
H         6.30681413665520   -2.23895353503251   -6.12805421558262
