35
 energy: -44.216259690514 gnorm: 0.107875904903 xtb: 6.4.1 (025e99ea0bd20707e8cccc6e19fe66a0758c6dd1)
C         1.02361707153710    1.19793341197593    0.52407563269132
O         2.28131076533234    1.41523833087776   -0.10175223759568
C         2.73733115575169    0.54750656101718   -1.05556252469903
C         1.96726772496434   -0.22944859648910   -1.92217215134158
C         2.66454714072094   -0.82114756742607   -2.98008830331618
C         4.01465306093803   -0.60569646421609   -3.28940745828172
C         4.73807600984869    0.16414521260385   -2.36884199066998
C         4.08854684678649    0.78801110855379   -1.29052030236629
C         4.76632279015116   -1.33504676708586   -4.38379681939258
C         5.41356120641501   -2.65370401410521   -3.88304570707559
C         4.30588958123503   -3.71208908285645   -3.75061664696726
C         4.88172125774887   -5.09085196848861   -4.05927858514837
C         5.45416649153616   -5.25471805887040   -5.45384379637192
C         5.77078810451404   -3.90334256265639   -6.06160581703448
C         6.40660497327245   -3.03285845423835   -4.99284247088770
H         0.85195954173416    0.16684223821611    0.84999132539720
H         0.17606258616971    1.38037345534803   -0.14402527689078
H         1.05010830926404    1.81036717705227    1.43139523851687
H         0.91299791684796   -0.41259977482790   -1.73391663724175
H         2.16780950754884   -1.58318612970361   -3.57801978628747
H         5.76809809681813    0.49447739494638   -2.45823796715247
H         4.59034824868923    1.31129456650489   -0.48202641717893
H         5.59409250690286   -0.64274216269109   -4.59526067526790
H         4.10192166811230   -1.48300038669571   -5.24597055098938
H         5.97540745154511   -2.57941818725831   -2.93673411286325
H         3.41129809576442   -3.38352226255510   -4.29085064272845
H         3.86599093573598   -3.68510028425205   -2.74274931750369
H         3.98248355967369   -5.67464861109772   -3.82448842445611
H         5.62180441626477   -5.41806754685976   -3.31734764046233
H         4.78562487708891   -5.80266108489504   -6.13024008308660
H         6.35210355085217   -5.88193042570373   -5.41762985901394
H         4.80012570290120   -3.50128290402459   -6.37149826528039
H         6.41219088848502   -4.14104551965237   -6.92015181539141
H         6.79147138739643   -2.07236907724279   -5.35010053325350
H         7.21162569155186   -3.64242346178707   -4.55599224975710
