35
 energy: -44.220219629572 gnorm: 0.092279478250 xtb: 6.4.1 (025e99ea0bd20707e8cccc6e19fe66a0758c6dd1)
C         1.06840968536439    0.12946706229087    0.28563210404144
O         2.34914091537828    0.71022339205402    0.07796656662605
C         3.06128721113289    0.34799318425648   -1.03212532196431
C         2.33422585230347   -0.01799240560359   -2.16575029255673
C         2.93129474351674   -0.16782693792113   -3.42135819600426
C         4.33255898754068   -0.19208757456763   -3.39390881011774
C         5.10184335804083    0.17048552891793   -2.28027509565592
C         4.45134773242342    0.42368425160066   -1.06100470332578
C         4.98231347535769   -0.87105963692971   -4.58195905379964
C         5.30859854895858   -2.35135709972902   -4.24911726689084
C         3.99342512615823   -3.10778318150681   -3.99853536709437
C         4.24965177191306   -4.56622542859545   -3.63092752821807
C         5.31608177997213   -5.25380325267543   -4.46118143082515
C         5.46180434237427   -4.40750760062493   -5.70953564918078
C         6.10291382243401   -3.08108312239656   -5.34369757070415
H         0.89989296709081    0.10655914578802    1.36725759337126
H         1.03343155935020   -0.90876573352389   -0.05910111456807
H         0.24714334585782    0.71872872075373   -0.13543566093103
H         1.25137797001833   -0.07910328160622   -2.10113407269592
H         2.28295942008697   -0.25640685949214   -4.29129382762042
H         6.17061409608701    0.22703874313074   -2.46079470783849
H         4.98478798421745    0.86797927191060   -0.22593823446496
H         5.87807614575796   -0.39844875715617   -5.01027378788913
H         4.23109497147353   -0.88198621067696   -5.38334163834013
H         5.90576050451295   -2.48250710256250   -3.33102549668056
H         3.31182594727974   -2.98030620521727   -4.84663620509787
H         3.39207194215241   -2.69296809846512   -3.17613731193355
H         3.32677063928801   -5.15924292532280   -3.66548240424837
H         4.55015479357301   -4.60870569286177   -2.57586923398710
H         5.10280731243171   -6.30862094213605   -4.67699391804342
H         6.22519016414868   -5.07832676520103   -3.87489846754780
H         4.49881203855534   -4.40521529757232   -6.23156185886749
H         6.15382576794645   -4.82215280112973   -6.45396641334150
H         6.21785467603738   -2.44814341458325   -6.22940138513866
H         7.09853134219425   -3.32140080292133   -4.94187778935616
