35
 energy: -44.215765017099 gnorm: 0.093801148086 xtb: 6.4.1 (025e99ea0bd20707e8cccc6e19fe66a0758c6dd1)
C         0.62852752987925    1.21695995831009   -0.14788756079093
O         1.99391050662418    0.89387124550317    0.08018784569089
C         2.70634404587880    0.52513834461843   -1.02757637635586
C         2.12128060105887    0.42105499474373   -2.29032602139913
C         2.85351371874236   -0.12488977041266   -3.34922724723520
C         4.14101809571355   -0.65336218830544   -3.18209593654775
C         4.68736861756874   -0.58955013207961   -1.89334970496287
C         3.98214604579558    0.00262446632157   -0.83228193986688
C         4.84381454983281   -1.40608374263320   -4.29301208170772
C         5.81847620544358   -2.57888580881765   -4.00474814628788
C         5.22441780902171   -3.64466957105768   -3.06887828166318
C         5.01194675075660   -4.95561504381025   -3.81995711380187
C         4.57995745815692   -4.81812713817982   -5.26696785650167
C         5.54205429401109   -4.04006416504375   -6.14151192740454
C         6.44697667795077   -3.19253528614107   -5.26568601608143
H         0.07322584595726    0.38713668968011   -0.59718672465271
H         0.60472585815226    2.04785579716210   -0.85995313930419
H         0.12141073776466    1.50328222694529    0.77939766288143
H         1.21921279352391    0.97559083913917   -2.53370431537016
H         2.32132152228018   -0.16577426455354   -4.29794902771428
H         5.57527405602187   -1.14985195193462   -1.61813654379615
H         4.45154989756566   -0.12296466578789    0.13889259231856
H         5.42594458161808   -0.69209089788267   -4.89346537534951
H         4.12830156209080   -1.65195542030688   -5.08941080958295
H         6.64013231660179   -2.07320007513981   -3.47009088516793
H         4.33310315808640   -3.22270819519714   -2.59179376488462
H         6.01888340989167   -3.64471455429806   -2.30804967369910
H         4.29089885775582   -5.58641055283944   -3.28445703456826
H         6.01073350877901   -5.39780944244622   -3.70975835038314
H         3.64968442113033   -4.23762663552143   -5.31505764502409
H         4.43998489294021   -5.84266515040462   -5.62991042063468
H         4.95981552346710   -3.30771105839374   -6.71118528548212
H         6.17186773592450   -4.64221864582612   -6.80915439464450
H         6.73752641335297   -2.37369118451176   -5.93154674043047
H         7.33428703416140   -3.76790880714302   -4.96222002780382
