35
 energy: -44.221611630273 gnorm: 0.105585153521 xtb: 6.4.1 (025e99ea0bd20707e8cccc6e19fe66a0758c6dd1)
C         1.06711324002303    1.06588863597096    0.67511250522349
O         2.28020445956325    1.45949666170125    0.04729263142667
C         2.80986077978252    0.70089318559382   -0.96000674518504
C         2.06283784758006   -0.23682140163688   -1.67437174518103
C         2.62131562626331   -0.96515336231851   -2.72942055033838
C         3.93124662036898   -0.68059205572528   -3.13928539218747
C         4.64054375137711    0.34676806047410   -2.50299414717289
C         4.09944410942702    1.00671427191086   -1.38694905844076
C         4.70308426518702   -1.24393766061810   -4.31468137630833
C         5.28883408882430   -2.64456977569707   -3.99272951905252
C         4.23469614605756   -3.76412094459363   -3.98557340547860
C         4.73309113798824   -5.18128740323477   -4.25218747679007
C         5.44068163634005   -5.26346363356333   -5.59081383294610
C         6.01564626387796   -3.94478589572260   -6.06657043996258
C         6.44654339938403   -3.05042575337676   -4.91822016552878
H         0.89329085943057    1.76287995321124    1.50144490840462
H         1.01575735227499    0.07659967830201    1.14058187115899
H         0.23517873571390    1.21274114833141   -0.02154026925248
H         1.18669108120410   -0.65061589946062   -1.18283304186670
H         2.14222070240281   -1.79036879830986   -3.25331046722964
H         5.55464193708967    0.74389362780399   -2.93284562873423
H         4.72552538680746    1.75409842118859   -0.90868997182826
H         5.54402349112093   -0.56109728563008   -4.50377280924068
H         4.10914950100495   -1.32886522392832   -5.23483977292747
H         5.81443529805218   -2.52837810980546   -3.02995327914405
H         3.45517566370753   -3.51641072194386   -4.71433284016870
H         3.84455324454010   -3.76792738308022   -2.95707459930312
H         3.89467819561776   -5.88947738897634   -4.26238833376322
H         5.31348619572479   -5.48449375653145   -3.37101659313290
H         4.74003324482780   -5.71792952108264   -6.30303147832270
H         6.28399203965792   -5.95686308928514   -5.49582687235472
H         5.16721821959544   -3.46350526624955   -6.56497750741735
H         6.74832714037324   -4.23922694579278   -6.82912185309532
H         6.91859438469260   -2.20147777524115   -5.42294832737936
H         7.25581163604838   -3.63071785061482   -4.45044674770330
