35
 energy: -44.220943516310 gnorm: 0.095754886750 xtb: 6.4.1 (025e99ea0bd20707e8cccc6e19fe66a0758c6dd1)
C         1.10633210035799    0.89444351718201    0.52723628902082
O         2.41359152270139    1.23616818561044    0.08567946463398
C         2.85192079705808    0.68369269267946   -1.08620164703120
C         2.05472438162238   -0.16010809759530   -1.86089341114985
C         2.70032297730928   -0.79029915442133   -2.92932895896381
C         4.00231394007677   -0.43169209572439   -3.30496711044499
C         4.74629290274634    0.52226343317834   -2.59792970749586
C         4.15092287540295    1.04242854144470   -1.43653519275030
C         4.66003092158873   -1.26992736629472   -4.38172953627244
C         5.13291380212967   -2.66234121398544   -3.88565331126054
C         4.07982518270610   -3.78176899735763   -3.93603805870652
C         4.73388452559849   -5.15197393541659   -4.08632513072840
C         5.45125779052640   -5.28181043735069   -5.41594005576208
C         5.97289591692372   -3.93373006687320   -5.87026662202838
C         6.37932259620184   -3.08600735747494   -4.67844267433802
H         1.05891005272325   -0.06557662550987    1.05159192110264
H         0.41564194685478    0.93113502669645   -0.32105177844314
H         0.90630114076451    1.59289715349212    1.34647734223610
H         1.12695880501432   -0.62839795302864   -1.54399443002881
H         2.21610654715341   -1.50320175284025   -3.59436837879317
H         5.69954665698128    0.79155735248990   -3.04160136538881
H         4.65185199192452    1.74433150736069   -0.77646336259418
H         5.46696477033711   -0.71548935433284   -4.88239066951165
H         4.00104932244713   -1.38332630811243   -5.25324924078852
H         5.47239987749675   -2.64784682342163   -2.83625618206921
H         3.37659789142228   -3.55352708033095   -4.74441906630281
H         3.47638108484186   -3.81513426904185   -3.01692014311424
H         3.97506774255244   -5.94453629397133   -4.06151843222701
H         5.51154570127952   -5.30561290743915   -3.32679053383198
H         4.95181178953830   -5.75295688283501   -6.27225547922682
H         6.27316642326489   -5.96887964384453   -5.18485593840958
H         5.12339643736869   -3.40639035553001   -6.31763029868830
H         6.79674441898054   -4.05762216967038   -6.58505739540606
H         6.89193596008052   -2.19338617666412   -5.05093467014741
H         7.13300513469414   -3.74729012476991   -4.22552579558478
