35
 energy: -44.219998804398 gnorm: 0.102575277127 xtb: 6.4.1 (025e99ea0bd20707e8cccc6e19fe66a0758c6dd1)
C         0.70641434975307    0.95134321237456    0.20510579738630
O         2.12470486775013    0.91052514280439    0.11872720691828
C         2.72203155301304    0.52523461147255   -1.04978428033211
C         2.04906921345325    0.33693058066173   -2.25781263890001
C         2.72138935196251   -0.22486142150155   -3.34770631394171
C         4.01163367054645   -0.75526253610602   -3.21049188959828
C         4.74937671603170   -0.29786371508131   -2.11051038949236
C         4.08541300999736    0.24700488918906   -0.99868987437149
C         4.86643214717153   -1.16064760039509   -4.39355142689210
C         5.71989816293889   -2.43622550690821   -4.16328430536581
C         4.92417110152161   -3.50204151178697   -3.39159296492890
C         5.45351554588911   -4.91724490968595   -3.60333622199268
C         5.22972008415184   -5.30749023539553   -5.05143219493562
C         5.11344878665123   -4.08574257019457   -5.94005656941426
C         6.13134895503140   -3.04347532872615   -5.51365416836624
H         0.16684305652925   -0.00072650950186    0.24063627780566
H         0.25708967302831    1.53983092216809   -0.60098436427514
H         0.59637254142480    1.37253039112383    1.20984353940102
H         1.02279656242817    0.67624625514365   -2.36780648035376
H         2.17292775133257   -0.42224971604850   -4.26705436530093
H         5.82232979643040   -0.45903196389722   -2.08130450619914
H         4.70647385393539    0.43080299754107   -0.12702809153215
H         5.54997240746268   -0.35727422251397   -4.70430736820359
H         4.09548957739803   -1.21988545780355   -5.17380850942634
H         6.59659976847767   -2.12708144178076   -3.56955080842393
H         3.87525529568514   -3.49652912575057   -3.70758046072665
H         4.85829650188175   -3.22109818908085   -2.33010007612302
H         4.96581674644950   -5.65105968984820   -2.94893640129391
H         6.54017973390050   -4.97362866210696   -3.45760888152716
H         4.24422324305276   -5.76608627668398   -5.20370508810168
H         6.04764610558965   -5.91672294962843   -5.45246871207132
H         4.09402995176098   -3.69167998752650   -6.01334173885975
H         5.40436501894295   -4.51064994004606   -6.90950122048448
H         6.13826249854168   -2.30085472474879   -6.31786941514158
H         7.14197439073420   -3.44033989449512   -5.33588826467008
