35
 energy: -44.228832529015 gnorm: 0.087003509381 xtb: 6.4.1 (025e99ea0bd20707e8cccc6e19fe66a0758c6dd1)
C         0.83331596721402    1.13229431793755    0.21348252590826
O         2.23792894375586    0.98160456210021    0.05527267881019
C         2.78228116269974    0.34719281535278   -1.02725651917513
C         2.04694314834780   -0.22721074746197   -2.06504637438203
C         2.72249101584442   -0.62566584054427   -3.22278617632492
C         4.12031948187606   -0.54679287361567   -3.29162037841853
C         4.82378427044266   -0.17175920843917   -2.13926418491923
C         4.17382738214077    0.31288334435847   -0.99185314325822
C         4.93874850925075   -1.04475517830854   -4.46501493900788
C         5.55134768341343   -2.44049206307736   -4.17318113073423
C         4.50379451348948   -3.38483259231471   -3.56039556456030
C         4.90887106534353   -4.84960559297554   -3.69528235454796
C         5.25433858080093   -5.24994858050976   -5.11645632552668
C         5.40236855496679   -4.07431712187046   -6.06081719352933
C         6.28333192848406   -3.03970660715454   -5.38424836739484
H         0.31234781904605    0.20519891005632    0.47410226071621
H         0.33583708035154    1.56251032217388   -0.66140074934551
H         0.72257620985141    1.85267412327716    1.03067002648360
H         0.96601182383782   -0.28164316334147   -1.96968441083484
H         2.14350949227885   -0.95475724284754   -4.08386244452964
H         5.90172612461359   -0.19180594550462   -2.01398057319903
H         4.91459751988722    0.54655984298070   -0.23294110924931
H         5.71019982049794   -0.28263081006725   -4.64731865038100
H         4.31696732028344   -1.17974553842928   -5.36046366851701
H         6.29141424895105   -2.27807011995683   -3.37154791491962
H         3.45435160166454   -3.20453572552128   -3.81781635205103
H         4.52421505819558   -3.15664818022292   -2.48450028950139
H         4.11525149702111   -5.46806820562453   -3.25682442862812
H         5.81939663423774   -4.89115223450468   -3.08334141970917
H         4.50158634510729   -5.96983733380209   -5.46261472930014
H         6.20971211219168   -5.78559943108851   -5.07988658163451
H         4.39807989173437   -3.66104675103239   -6.20393489654096
H         5.74614134647282   -4.30125390614365   -7.07832464827558
H         6.66831604029093   -2.28206896188617   -6.07422499788491
H         7.20649583548320   -3.52023695037677   -5.02742213738338
