35
 energy: -44.216886940299 gnorm: 0.107731450785 xtb: 6.4.1 (025e99ea0bd20707e8cccc6e19fe66a0758c6dd1)
C         0.83482917893007    1.54629572135396   -0.08973285491013
O         2.00382487696373    0.74546009163683    0.02334559593063
C         2.55560130551638    0.22338715014196   -1.11404163413461
C         1.99533692620233    0.01368799789691   -2.37491409253617
C         2.75275910459527   -0.56557992839080   -3.39777927011543
C         4.10000139253144   -0.87362691986556   -3.16341031640739
C         4.69254821264246   -0.47919182119577   -1.95645257603603
C         3.91821086783885    0.03146245676952   -0.90122352328279
C         4.95055660391223   -1.40202351003951   -4.30007219243228
C         5.90823150456996   -2.52214262928112   -3.81353532235201
C         5.28221272852823   -3.68510119740187   -3.02595631330212
C         4.99258185779754   -4.89908882963093   -3.90356066099713
C         4.54030903681070   -4.61351308105282   -5.32245232516028
C         5.52109330958254   -3.76510206191152   -6.10609803714387
C         6.46716189661186   -3.09835951027189   -5.12392220823146
H        -0.02756820493901    0.94355443101748   -0.39273458052374
H         0.89865816596881    2.27198169764911   -0.90661566578966
H         0.70168927776946    1.99743306890755    0.89908190594742
H         0.92528058937219    0.19867891411920   -2.33988360289180
H         2.23819823840242   -0.75979454935437   -4.33718381582942
H         5.76820639478134   -0.54268054550217   -1.82612546374635
H         4.36233587521414    0.52980013147284   -0.04465762718571
H         5.49554422399081   -0.56257954736472   -4.75562422599282
H         4.32561817810887   -1.84716325005184   -5.08617985172253
H         6.76779177897143   -2.11437039894839   -3.25534793014150
H         4.29934412765842   -3.31485986184689   -2.71451848748701
H         5.78782377527190   -3.95207748323037   -2.08621331832042
H         4.20872666009628   -5.50803257237785   -3.43523179924185
H         5.81080247081904   -5.62983644073385   -3.94572224803073
H         3.61089446186093   -4.02999297814941   -5.30259725522111
H         4.26336655761474   -5.55321317941423   -5.81363900280153
H         5.02745482672486   -3.05224047841829   -6.77544115258446
H         6.03788462664936   -4.39379936155641   -6.84275799762341
H         7.06240068403309   -2.41346796382448   -5.73622089083240
H         7.13320591195499   -3.88580641875145   -4.74080511409840
