35
 energy: -44.215412792911 gnorm: 0.106375539119 xtb: 6.4.1 (025e99ea0bd20707e8cccc6e19fe66a0758c6dd1)
C         0.62519895535620    1.40924413819468   -0.23999741371964
O         1.96126020071655    0.96903632653211   -0.03546671205397
C         2.65437464648210    0.37901145702167   -1.05631444513241
C         2.12723276164317    0.21091150655583   -2.33753772833318
C         2.83870579071175   -0.38642385424599   -3.38275993250144
C         4.14793531826654   -0.82290030201327   -3.13721991355227
C         4.68872412773157   -0.82457474889155   -1.84455505603789
C         3.88259954471968   -0.24402365244811   -0.85107730581664
C         4.99307006908399   -1.31446138428867   -4.29426887701241
C         5.98848464478351   -2.47270214428818   -4.01830812173085
C         5.49727377987953   -3.58547742696751   -3.07751277388363
C         5.01533872905850   -4.85828727620460   -3.76710330120435
C         4.48560382411354   -4.59712529415561   -5.16371817866321
C         5.40669400974646   -3.88577315582386   -6.13398136608171
C         6.43673113184740   -3.09113238887881   -5.35178552327600
H        -0.11335456397346    0.62443596385778   -0.43352049314747
H         0.60571142095575    2.29568429129914   -0.88174182661788
H         0.36124567170211    1.78951373168166    0.75233794862295
H         1.15761119657203    0.63098271160656   -2.59021052430276
H         2.43962186752239   -0.51012055157750   -4.38794860115418
H         5.59032111836789   -1.38441773868175   -1.61705738822644
H         4.09412570884137   -0.27799951721526    0.21353291226477
H         5.47002338467500   -0.39316136400311   -4.65886061921935
H         4.25112008123892   -1.68711789522492   -5.01350459766602
H         6.89175476698947   -2.03576581187040   -3.56017610049790
H         4.61244562151528   -3.12146833306048   -2.62820492489531
H         6.21561036224294   -3.80757306320325   -2.27457949706209
H         4.28682041049642   -5.30131423575469   -3.07604502021083
H         5.76707882163612   -5.65833919708810   -3.75946141859490
H         3.56243750909567   -4.01511708326255   -5.04653548716606
H         4.18275485869249   -5.56671265108126   -5.57503390301213
H         4.77691483875775   -3.33410282208292   -6.84031615422221
H         5.92526696008695   -4.71191079285932   -6.63754879684448
H         6.76552944982826   -2.23367676326163   -5.94756806559879
H         7.19452907690839   -3.83011615944023   -5.05160019456892
