35
 energy: -44.223206771967 gnorm: 0.070987151094 xtb: 6.4.1 (025e99ea0bd20707e8cccc6e19fe66a0758c6dd1)
C         1.84305142402967    1.58763434437604    0.80550957273885
O         1.90961463878983    1.74176282764919   -0.60604599430567
C         2.27978785803210    0.73440445213680   -1.45390680698297
C         3.25937674461952    1.00076306300642   -2.41157478242994
C         3.74282891382178   -0.02223024962320   -3.23331167848334
C         3.30402282369207   -1.34707370495537   -3.10245848230707
C         2.47650090173875   -1.62904487027194   -2.00740712471332
C         1.92017125944199   -0.59336176176860   -1.23816576718027
C         3.74442325244278   -2.37917756563830   -4.12003226488301
C         5.27107185095547   -2.36142364621429   -4.39851930877130
C         5.91622283871548   -3.15448088171677   -3.24982732929266
C         6.70555874835047   -4.31303085296541   -3.85195040109718
C         5.86815878635663   -5.10200448239757   -4.83969514820710
C         5.26015989014299   -4.30401189113297   -5.97520596556717
C         5.59825753209519   -2.83186632353715   -5.82441414342126
H         0.79697325372794    1.44815328003152    1.09723178280968
H         2.27523167574350    2.50726871181785    1.21230763305753
H         2.49393347058411    0.79016592227443    1.17887593790425
H         3.68403321454907    1.99598417512252   -2.50991678419750
H         4.59899550843238    0.14520678830571   -3.88440053958585
H         2.22509401676367   -2.63470849130472   -1.68570579299876
H         1.17555245775131   -0.84771251454207   -0.48974001160267
H         3.22857024344603   -2.11031414664281   -5.05320612939106
H         3.46630064282056   -3.40851667278845   -3.85588934636914
H         5.63960922466641   -1.32763438808414   -4.28826869794315
H         5.20280745129029   -3.51524352468264   -2.50083356952729
H         6.54301846579712   -2.41135692049778   -2.73511402220138
H         7.05183058577537   -4.98333033832956   -3.05485078931634
H         7.61292286819170   -3.86248847948012   -4.27498298512411
H         5.04414822770201   -5.56306200418335   -4.28011142116305
H         6.50525869356141   -5.87886946920196   -5.27739626237046
H         4.17661618673427   -4.40743543555524   -6.09811816650200
H         5.67507887934603   -4.73694346498616   -6.89466990860902
H         4.99383786248254   -2.20660041538862   -6.48925602575159
H         6.65374372137414   -2.71638730848601   -6.11264923842110
