35
 energy: -44.223432606191 gnorm: 0.100062333735 xtb: 6.4.1 (025e99ea0bd20707e8cccc6e19fe66a0758c6dd1)
C         0.99124137372878    1.03482072375563    0.33167111221609
O         2.40055441171539    1.10446380966298    0.15944456180000
C         2.91232918374806    0.52694425979131   -0.96981397270362
C         2.14114150607764   -0.39494952802739   -1.67907462428883
C         2.67052298831777   -0.86392568356697   -2.88543670638459
C         4.01007161254198   -0.60676539972518   -3.20848719614846
C         4.69156611919656    0.40393830995243   -2.51748717769833
C         4.14955514315284    1.01940168272624   -1.37674031625271
C         4.68786964494508   -1.21699977960835   -4.41797104567955
C         5.27786047557451   -2.57178181069696   -3.94362658331366
C         4.18531285362174   -3.65027328736860   -3.85503383027865
C         4.92156597406102   -4.98100620223559   -3.97719218417100
C         5.21723575911627   -5.23153699583685   -5.44319746102831
C         5.87486694036576   -3.97268997151302   -5.97108480743847
C         6.40194602776352   -3.08955799759136   -4.85460537788462
H         0.63464960099142    0.01085030594908    0.48386588023108
H         0.46082831262090    1.37324432828346   -0.56394222526410
H         0.67986812968468    1.63254371781137    1.19467730857203
H         1.09872093514957   -0.59012105376307   -1.44298827200417
H         2.21806090262528   -1.57818844261423   -3.57106042453806
H         5.71016162374993    0.60575051618060   -2.83338515427152
H         4.63192151367524    1.84699207301974   -0.86516488903840
H         5.51021593689721   -0.58674532852057   -4.78638824266396
H         4.09221724427413   -1.50965099890026   -5.29330878207911
H         5.69690647797315   -2.32812734535982   -2.95280461202300
H         3.41118457496882   -3.56123939719372   -4.62503462785871
H         3.73519576702063   -3.65416732372708   -2.85133307084897
H         4.32854661026559   -5.82642888751947   -3.60549083247424
H         5.80198184806539   -5.00301381537949   -3.32172426115741
H         4.30833031370517   -5.51906990501645   -5.98718009357725
H         5.91489037675085   -6.07539631281403   -5.48985850503107
H         5.20501257733537   -3.43825219333989   -6.65339132969024
H         6.68601508879994   -4.36611333586761   -6.59739000178152
H         6.95995472291187   -2.33402659060601   -5.41682767544074
H         7.16219739432250   -3.63813897341556   -4.27880789253100
