35
 energy: -44.229040001114 gnorm: 0.093461003381 xtb: 6.4.1 (025e99ea0bd20707e8cccc6e19fe66a0758c6dd1)
C         2.29985882286867    1.97215401543932    0.58021995595411
O         3.31115156665894    1.77469462657676   -0.39905127908352
C         3.23351527807792    0.73849803121451   -1.28839727530550
C         2.19568288057012   -0.18790934693290   -1.39949422554742
C         2.23675003286326   -1.18058752016017   -2.38356555835063
C         3.34640576855860   -1.16860421108198   -3.23995570957094
C         4.43726193782467   -0.29468374712806   -3.14129660935266
C         4.36735565119089    0.63462000008704   -2.08992506663992
C         3.37273840212922   -2.09287329474976   -4.43982262297234
C         3.89364109045696   -3.49610460500521   -4.02978791289899
C         4.00169144032026   -4.51747360768438   -5.17424556584233
C         5.44054605463117   -5.01026389427411   -5.29547484804604
C         6.40701432359878   -3.85514889879303   -5.47156062891622
C         6.35857507945273   -3.05145112606258   -4.18798625258199
C         5.22087468992867   -3.43192590187314   -3.25785855698473
H         2.66398114877820    2.74284404583231    1.26745220551119
H         2.03623897208361    1.15174515786819    1.25507229393913
H         1.37273080471168    2.31256925456804    0.10740194552704
H         1.34432425977733   -0.14475844673720   -0.72585052956662
H         1.46758487105695   -1.93994989242319   -2.51289786853469
H         5.14348214782591   -0.31112156913498   -3.96533502597214
H         5.15185654907669    1.36694901248752   -1.92395775705272
H         3.97310841822201   -1.68152788945461   -5.26417456737983
H         2.33953992065552   -2.19907633793353   -4.79743203474249
H         3.19348049275788   -3.98036736394543   -3.32838935106775
H         3.71495340568857   -3.99134644636548   -6.09134663001685
H         3.29929206634230   -5.35380572273921   -5.04302255426127
H         5.45219483069236   -5.65811608450936   -6.18132202583465
H         5.80547498483044   -5.59863923015569   -4.44347955287420
H         6.04375359970662   -3.36922272462061   -6.38622930460699
H         7.42473669495956   -4.23251496563072   -5.62266916916408
H         6.19336626575180   -2.01830647212719   -4.51231474063334
H         7.30902023014271   -3.13734318786099   -3.64551226488150
H         5.16830569401980   -2.71984608068994   -2.42811513310866
H         5.47424989208069   -4.41255398154829   -2.82816617214262
