35
 energy: -44.225885526979 gnorm: 0.108298557979 xtb: 6.4.1 (025e99ea0bd20707e8cccc6e19fe66a0758c6dd1)
C         0.85487021305302    1.00623742704167    0.06747598717339
O         2.27404055687557    0.92623481567790    0.08265833956647
C         2.81881671302222    0.33933529767676   -1.02614055463739
C         2.01914675528265   -0.06657857849662   -2.09545395289954
C         2.72469846326934   -0.55235868698266   -3.20076265576044
C         4.12521644201960   -0.53464734934151   -3.25661270625272
C         4.87514290663594   -0.23827765670908   -2.11065761742624
C         4.20062251469452    0.18416535817742   -0.95288449242192
C         4.88298330761104   -1.07179162592311   -4.45323827259217
C         5.63273968884600   -2.39543992509861   -4.14607913939529
C         4.59998190272099   -3.36052733847842   -3.54054591937572
C         5.08063522876672   -4.80771664657213   -3.59011298843568
C         5.10694841322200   -5.19721436446354   -5.05536276727263
C         5.34751137234917   -4.07308984157503   -6.04243579876666
C         6.22769712665736   -3.00007451076795   -5.42747897185384
H         0.35185794306202    0.03372864912899    0.07393278111736
H         0.43403132895875    1.53546937344347   -0.79322139441614
H         0.60564567372482    1.55880696814822    0.97937499627907
H         0.95103967377794    0.11531821953504   -2.17626326902267
H         2.16507566045019   -0.91276397536413   -4.06210083025194
H         5.95163355194338   -0.29132871293371   -1.98255621138313
H         4.75998768192470    0.30332979187118   -0.02973605707925
H         5.59964667033865   -0.30872723680317   -4.78988599503771
H         4.16586999331313   -1.25530491351863   -5.26486259738908
H         6.41827395339540   -1.99823595718774   -3.48135351680637
H         3.63502395060332   -3.28132731831122   -4.05307529379623
H         4.34537526297604   -3.03820625024483   -2.52009487062918
H         4.36185391107496   -5.30515710177830   -2.92642647523951
H         6.05908113274002   -4.94891602855439   -3.11266038285641
H         4.14872145270641   -5.70549406451877   -5.22315497604517
H         5.83840750146384   -6.00935924358951   -5.13527560864461
H         4.34234680736612   -3.75348371874668   -6.33801475473139
H         5.86901885898638   -4.48396620795730   -6.91662800359111
H         6.45191928060394   -2.15944942664016   -6.09183521300814
H         7.20533315565500   -3.40008613388626   -5.11977055968123
