35
 energy: -44.221264358989 gnorm: 0.092966868193 xtb: 6.4.1 (025e99ea0bd20707e8cccc6e19fe66a0758c6dd1)
C         1.98119956414428    2.41436960708702    0.47956398179315
O         3.09232029838716    1.75056268330084   -0.10818295519736
C         3.04406923002551    0.81000594760230   -1.09999541672264
C         2.01923295848139   -0.11734125855029   -1.29340445033254
C         2.19799965213470   -1.07614104483761   -2.29552136143957
C         3.38866356570396   -1.19658644866673   -3.02538154234651
C         4.43198564287887   -0.30202208813507   -2.75212083324750
C         4.26199932038509    0.68048210101560   -1.76234073660739
C         3.50552459556984   -2.18637723568857   -4.16612911439020
C         4.18857444452600   -3.56558136813681   -3.96671741860794
C         4.00057306046131   -4.37077604824195   -5.26323962741622
C         5.25914330987517   -5.16319492886993   -5.60370203200755
C         6.51275244982739   -4.31261419056322   -5.66953743677994
C         6.46276664068535   -3.14261765876378   -4.70805463199802
C         5.64766465696315   -3.52560324607538   -3.48609245744901
H         2.41580758678312    3.34855507513498    0.85003629731583
H         1.55169766026882    1.84507309250961    1.30987801544893
H         1.32239827020662    2.64921456853557   -0.36295276549795
H         1.16013216525339   -0.12388683802500   -0.62829369263940
H         1.34487182776751   -1.74369839657243   -2.40282099963332
H         5.38862837467372   -0.31526565373725   -3.26467892031676
H         5.10691812393508    1.32330187685127   -1.53389479748061
H         3.97072641494542   -1.53173597638546   -4.91728650033987
H         2.51331884525490   -2.40309949195412   -4.58472424242660
H         3.63091286666785   -4.06480988395735   -3.15648308593265
H         3.72294169231610   -3.66668934900024   -6.05525326001530
H         3.16433430539545   -5.04747994118246   -5.03343024464043
H         5.15698638030184   -5.70419265708946   -6.55315387137130
H         5.49524090638993   -5.89768449674209   -4.82265296675630
H         6.52397312081047   -4.02846154006382   -6.72964722086271
H         7.33434488878145   -4.98432716994727   -5.39606842192808
H         6.09836851211159   -2.25554848313000   -5.23738730314329
H         7.51967019520242   -2.92952604940027   -4.50178223924684
H         5.80193666380788   -2.71488834791535   -2.76690067515980
H         5.95280385270845   -4.49568255916548   -3.06620894506381
