35
 energy: -44.222000699650 gnorm: 0.094806238503 xtb: 6.4.1 (025e99ea0bd20707e8cccc6e19fe66a0758c6dd1)
C         1.09409032978974    0.64105033115684    0.47509445049901
O         2.16933548668056    1.37336558618640   -0.09782579467727
C         2.84021401979679    0.71560629606060   -1.09177841178325
C         2.19452805794314   -0.12962410502707   -1.99529624844770
C         3.00840429996298   -0.64417420420735   -3.00936553974958
C         4.39704773876045   -0.47494009779933   -3.09831924820804
C         5.01290853837117    0.36220609989854   -2.15845783604840
C         4.21403551120523    0.93373540682069   -1.15395268608171
C         4.95471496541818   -1.20536204305743   -4.30253616187762
C         5.56688382879092   -2.61735061528144   -4.10237692577994
C         4.58606974730220   -3.60445283901345   -3.44794146928542
C         3.83304894453975   -4.33693272255497   -4.55441076186937
C         4.74861703233955   -5.29406583277179   -5.29264450167455
C         6.11803717632116   -4.68445440258612   -5.51378251779073
C         6.06486642042326   -3.16885472209402   -5.44751610676847
H         1.34530227185649    0.66547459886071    1.54052036307046
H         0.99698166360166   -0.40177031661931    0.15715293708649
H         0.16392377920500    1.18681619867931    0.28552763584172
H         1.12802764934260   -0.33276399847904   -2.03749102584570
H         2.48508400183485   -1.31320123487019   -3.69018256022402
H         6.09386852015057    0.38167606442003   -2.06252592074408
H         4.64727948295407    1.58411771276787   -0.39990023033378
H         5.84164152519336   -0.66735008721549   -4.66737823549356
H         4.16829508630775   -1.17344649226536   -5.06881799269083
H         6.37081176001800   -2.46936516764431   -3.36177216678403
H         3.89334394485168   -3.14797020330893   -2.73249935805815
H         5.24837158974397   -4.36385354340224   -3.00669028587660
H         3.57253566370292   -3.54248218395405   -5.26543435412522
H         2.86525564627926   -4.78353507538479   -4.29139534015421
H         4.34194048416439   -5.59995763291185   -6.26513911753876
H         4.78875114170939   -6.21221306562090   -4.69565817322246
H         6.41572475746974   -4.97458822239188   -6.52722973698166
H         6.76059514693405   -5.10510805131373   -4.72945400284101
H         5.43083769408681   -2.74076755894121   -6.23048754607891
H         7.11064340770566   -2.86511537699815   -5.60422881039467
