35
 energy: -44.223077702976 gnorm: 0.091846737961 xtb: 6.4.1 (025e99ea0bd20707e8cccc6e19fe66a0758c6dd1)
C         0.78080688161601    1.43294024224596    0.08169493391531
O         2.15027019282165    1.07342236888541    0.20815647498651
C         2.75497727369777    0.57705865627628   -0.91372564505480
C         2.09390128738215    0.36307781735125   -2.12403965110346
C         2.78109660468445   -0.31032355198101   -3.13882338758353
C         4.14923838179399   -0.61028317901642   -3.08318329182617
C         4.83424191852804   -0.13647304966288   -1.95636836873290
C         4.13450239695878    0.39566886748019   -0.86043770003348
C         4.89220366279270   -1.24549480778347   -4.24040241304218
C         5.37789939326119   -2.70643974395277   -4.04478617043079
C         4.18850026824015   -3.67663374596698   -3.95147940843126
C         4.73202958475477   -5.10188169357359   -3.98442748195558
C         5.51990557346493   -5.43037833605468   -5.23770285148392
C         5.72016007707879   -4.15526934814617   -6.03132420535238
C         6.39246402456770   -3.15524727845343   -5.10816440184789
H         0.09704077253626    0.65144484273793   -0.26553007159004
H         0.67747449324496    2.25721731348133   -0.63096313983159
H         0.45914311294332    1.77349020057250    1.07142414734356
H         1.04748504641187    0.64703501295304   -2.19368651875547
H         2.35752613107563   -0.51476041356879   -4.12053960436837
H         5.91714795814329   -0.10794163607007   -2.02387363483592
H         4.72052955632436    0.65723225947023    0.01560416117345
H         5.84859154693495   -0.70988139890089   -4.32784277539897
H         4.30443376041436   -1.23727202143089   -5.16836878687950
H         5.86537052212397   -2.88897438329219   -3.07229029853107
H         3.65603979441116   -3.52564030911384   -4.89688391327227
H         3.60098294191553   -3.49789707783919   -3.03883908481424
H         3.97072006809510   -5.88857278771640   -3.90633575379110
H         5.47949088791144   -5.15779327127406   -3.18228650972881
H         5.06571857065737   -6.16941997282219   -5.91018557399601
H         6.44388784625635   -5.91774478844066   -4.90644997931879
H         4.75920075778258   -3.86540211779102   -6.46996411542087
H         6.40575646282577   -4.45876817298110   -6.83310192834514
H         6.69000146760678   -2.28600394472385   -5.70329700619495
H         7.22430534941223   -3.67914908280893   -4.61416756147371
