35
 energy: -44.220989252202 gnorm: 0.098337374404 xtb: 6.4.1 (025e99ea0bd20707e8cccc6e19fe66a0758c6dd1)
C         0.79339056636579    1.12458332173454    0.29578091776327
O         2.20000424701765    1.24136863497885    0.12703695292715
C         2.75911571450628    0.69798663009348   -0.99670565399284
C         2.21207604760538   -0.38155644631683   -1.69169026131639
C         2.93663496711332   -0.90875815771944   -2.76526633282399
C         4.24155076390372   -0.50141547220618   -3.07534734353030
C         4.82239068805755    0.46925221078263   -2.24838484617407
C         4.06894463662794    1.10027112934537   -1.24438852152182
C         4.82504526802065   -1.22262252896211   -4.27286221031732
C         5.47171740466653   -2.61987316916064   -4.07784438816845
C         4.45045045881328   -3.70935112668218   -3.71082336648784
C         4.86788478491399   -5.14946410721913   -3.99307252582126
C         5.30742392126132   -5.36702286666615   -5.42793534213542
C         5.46581293060750   -4.06978967311856   -6.19470689377651
C         6.23994091355162   -3.10166426495560   -5.31851067346876
H         0.57213446323333    1.93962279266798    0.99262577604306
H         0.66475003307408    0.13943517163219    0.75504831236554
H         0.29442510875883    1.30978539259545   -0.66116183626915
H         1.26882685237614   -0.85139310189466   -1.42710794319840
H         2.53300026752778   -1.73460263223454   -3.34838985492092
H         5.81746335770839    0.84214234194717   -2.46938218028865
H         4.56185224273488    1.91606661087449   -0.72399212889694
H         5.59139968455921   -0.69601495412546   -4.85988068196472
H         3.99445799814757   -1.24295177086660   -4.99145401471633
H         6.12964999003848   -2.50857527439531   -3.19953196568791
H         3.44651768905160   -3.65217623112303   -4.14551046493622
H         4.17110948526003   -3.70025653953309   -2.64690529061442
H         4.05924819003969   -5.82720115306125   -3.69082638503523
H         5.71532306382216   -5.33596798992116   -3.32052564417294
H         4.64949686736082   -6.08512529095045   -5.93406011531272
H         6.31547676504892   -5.78969110592049   -5.34933007166424
H         4.45926389038423   -3.70800779748774   -6.43101960857970
H         5.98494514890258   -4.23392489421396   -7.14789251377240
H         6.61380434275820   -2.19530731421143   -5.80537670626951
H         7.21712112711022   -3.53750473932603   -5.06233128826450
