35
 energy: -44.220735770108 gnorm: 0.088279246965 xtb: 6.4.1 (025e99ea0bd20707e8cccc6e19fe66a0758c6dd1)
C         1.05608330671824    0.55097140149716    0.56384292879791
O         2.40531835309475    0.75589107359658    0.16603883997997
C         2.84767098643168    0.47725543401758   -1.09782563215612
C         2.06918989385534    0.09310554921757   -2.19055858388458
C         2.72251989132301   -0.41465875011666   -3.31786873221749
C         4.11810793398169   -0.41952463978813   -3.44899409396508
C         4.83424775073420    0.24440378280827   -2.44411570735713
C         4.20754231789356    0.71591536541443   -1.27844354889322
C         4.86864428868634   -1.19992240968214   -4.50839100814784
C         5.52798112061066   -2.49189317761969   -3.95647375558377
C         4.43444640607949   -3.45580434558107   -3.46687195233254
C         4.80495320189449   -4.91408234690776   -3.71983714802576
C         5.01285941248020   -5.27931374781884   -5.17679933016457
C         5.42278632324051   -4.05834043762365   -5.97493700863598
C         6.26662591865768   -3.09269778196742   -5.16269950541173
H         1.04698839595246    1.03249791140748    1.54714647359015
H         0.86993424256368   -0.49441693527078    0.82936797727489
H         0.41890390520536    1.03426437941204   -0.18411166645663
H         0.98664488474510    0.09496490991964   -2.09802658137597
H         2.09482425728791   -0.73298225531332   -4.14831526361648
H         5.89912821958666    0.39675914014301   -2.58859383876479
H         4.73138268488769    1.41311379024341   -0.63129734394924
H         5.66429530657196   -0.66989569578400   -5.05172925994499
H         4.15336000634923   -1.45311527850907   -5.30269852898525
H         6.27804318222056   -2.19450534704296   -3.20436830835897
H         3.49894557002087   -3.06554175245513   -3.88236701373348
H         4.35417720759303   -3.28636726710835   -2.38295142944574
H         4.05445122191299   -5.55722865864707   -3.24267577498649
H         5.72304260680476   -5.24028868538495   -3.21391629267784
H         4.18411084616495   -5.81261412708278   -5.65998449683528
H         5.91706328813535   -5.89650480134172   -5.22668239035044
H         4.54739999956259   -3.52916943608141   -6.36678855190286
H         5.93916192010449   -4.39979148264837   -6.88145169954848
H         6.52530829137058   -2.23801728116496   -5.79586614611867
H         7.15875683001482   -3.59654657294753   -4.76181946793997
