35
 energy: -44.222687211891 gnorm: 0.103035984234 xtb: 6.4.1 (025e99ea0bd20707e8cccc6e19fe66a0758c6dd1)
C         1.21952729183210    1.30974992878829    0.52367842762900
O         2.41674615089481    0.55466826345389    0.39255227846644
C         2.76801910954108    0.29656112764562   -0.90384854317076
C         2.08803400169971    0.42641800978226   -2.11563511072161
C         2.69935004409106   -0.03010877995043   -3.28754330888067
C         4.01680726723232   -0.49673270648124   -3.39455774489485
C         4.71515602300069   -0.50748930612597   -2.17980218443275
C         4.05855157000318   -0.22194486341849   -0.97099723007669
C         4.72414182933118   -0.97535616394153   -4.64565515334324
C         5.15866818308085   -2.44919107466900   -4.42765588171371
C         4.04001507690883   -3.47181369880482   -4.16782703711221
C         4.61082795565681   -4.85911018007113   -3.88957798692753
C         5.95395844395874   -5.22219669440740   -4.49250952719559
C         6.03923114009775   -4.43498605090311   -5.78435612004784
C         6.05785886756777   -2.93138142805897   -5.57678226271868
H         1.29972412407818    1.74736780656774    1.52412603759601
H         0.29821981028903    0.72223232028972    0.58698234657770
H         1.09644336381854    2.14735720555545   -0.17077831332086
H         1.10098983221154    0.86849067321585   -2.21948544097573
H         1.98216591535682    0.05000819569289   -4.10252876904527
H         5.74063014767263   -0.85815048715714   -2.12067476508300
H         4.52909036031851   -0.37674586194339   -0.00460057796893
H         5.60860223865872   -0.36360913625780   -4.87522143811313
H         3.92182016927995   -0.90015723612847   -5.39217223353813
H         5.75985286455060   -2.44218477495336   -3.50287314258290
H         3.33333910438555   -3.44094587979222   -5.00434308486564
H         3.40540497462714   -3.29632306244315   -3.28662965897270
H         3.90557908975688   -5.58444823329510   -4.31511543723514
H         4.60115097140015   -5.01088913672104   -2.80232265962693
H         5.94838201128607   -6.29319442597323   -4.73258065973361
H         6.76336843706567   -5.03312609275349   -3.77829279915252
H         5.22170549848423   -4.79044940743102   -6.42088453499686
H         6.97370841988645   -4.68149389610057   -6.30492076881538
H         5.62033430326109   -2.44666711127042   -6.45537181955983
H         7.02035437031826   -2.43774135811955   -5.37581495546050
