35
 energy: -44.218786106264 gnorm: 0.109276229730 xtb: 6.4.1 (025e99ea0bd20707e8cccc6e19fe66a0758c6dd1)
C         1.03671908070215    1.51894281287801    0.09820809130488
O         2.15335459776463    0.66025694319892    0.28915070692143
C         2.71503198110216    0.17692575264354   -0.86044772616053
C         2.02405380350236    0.16398068170653   -2.07290425339628
C         2.62547930717453   -0.13527393047915   -3.29937353100122
C         3.93052562526194   -0.63273283185027   -3.17990693220154
C         4.66878653220962   -0.56963539817606   -1.99060995652425
C         4.05570905274977   -0.19136037774063   -0.78440994708578
C         4.72343900532652   -1.08510301499007   -4.38874807616820
C         5.52276708941010   -2.41476038758758   -4.34859781546696
C         4.61675204483297   -3.45725520228231   -3.67258440496922
C         5.30689717350763   -4.81367770521831   -3.56460709582543
C         5.66133547135057   -5.27221227115834   -4.96584844318756
C         5.29884446682581   -4.23896984634277   -6.01315451677615
C         6.00001775608777   -2.92558656348072   -5.71711207204231
H         0.87921352373411    2.09309834638026    1.01710622528133
H         0.14049871340473    0.94119923024241   -0.14875993910939
H         1.20290833573375    2.08821611953075   -0.82228895036597
H         0.93896646749701    0.21288220784483   -2.04714676608778
H         2.04975104512015   -0.21566149230356   -4.21972558403723
H         5.72794965623863   -0.80629225830506   -1.97566015636591
H         4.53980396590326   -0.02731282582814    0.17373048947777
H         5.45625201607501   -0.31266620645096   -4.66357855328543
H         4.13194646248460   -1.12163964688982   -5.31366121377476
H         6.34100809998719   -2.21380936220850   -3.63670207017825
H         3.71116738672040   -3.61598179734806   -4.26825641640865
H         4.39752451668164   -3.16904610101181   -2.63387820487211
H         4.80107424438244   -5.59789365850851   -2.98692043516329
H         6.25368963749273   -4.62194154053815   -3.04299812699774
H         5.04851344630265   -6.15309670033053   -5.19648489804905
H         6.73087972707312   -5.50056256523673   -5.03605522665808
H         4.22924073272803   -4.04714979739248   -6.15108100440429
H         5.63343605997314   -4.59264669869912   -6.99700542383686
H         5.78669771628545   -2.10992394867285   -6.41531288708243
H         7.07513933152913   -3.14454129508471   -5.63563574780983
