35
 energy: -44.223254126809 gnorm: 0.092134968801 xtb: 6.4.1 (025e99ea0bd20707e8cccc6e19fe66a0758c6dd1)
C         1.07193156834950    1.15022056497208    0.51876719442006
O         2.39015215143434    1.44081362773642    0.07320513748723
C         2.83428132003312    0.78527112181073   -1.04199905047291
C         2.12091566269685   -0.11396240354946   -1.83582380590003
C         2.74756522555552   -0.72621426951333   -2.92575536877472
C         4.14440699488756   -0.70039220312285   -3.03999107891211
C         4.83893533646419    0.12804640748097   -2.14849930122665
C         4.21791266163609    0.89761125232772   -1.15051371399534
C         4.88111866294746   -1.28665572427650   -4.22666639324424
C         5.45780931345997   -2.71938274586315   -4.07419567196775
C         4.53514143352984   -3.78734213463253   -3.46362254722581
C         3.97221689339449   -4.58162493782041   -4.63838728539727
C         4.96162507726490   -5.27904978745054   -5.55163850485639
C         6.31755277814446   -4.60582377007451   -5.61540720060164
C         6.06379887279234   -3.12097221961355   -5.42809574162393
H         1.15033652633828    1.27258621153196    1.60399328592171
H         0.80626359931123    0.11099653970575    0.30099263884171
H         0.36257583978315    1.82935261511261    0.03441207861574
H         1.04570395877714   -0.26921978757843   -1.81896380281352
H         2.16640041645054   -1.31672850977639   -3.63181024610150
H         5.90757864780971    0.28813052474636   -2.25063176051223
H         4.82903849060866    1.48578836364230   -0.47237988908744
H         5.77505363657084   -0.69666569886862   -4.47565906215593
H         4.25015060028245   -1.24973362971034   -5.12509765064393
H         6.35988893736729   -2.62687182424907   -3.44619145444807
H         3.72757545423876   -3.34186974549150   -2.87244204615611
H         5.12802216207336   -4.42292645088220   -2.78941131932787
H         3.45199377946030   -3.85420444953741   -5.27462679990462
H         3.31237737879834   -5.35262794306126   -4.21955459507334
H         4.50682395784823   -5.14211865941253   -6.54113696062736
H         5.23987309944002   -6.32360602054406   -5.37142175497662
H         6.82093500398747   -4.86262965868845   -6.55377166265777
H         6.98803446295250   -5.03075638704794   -4.85719348583151
H         5.40240792877570   -2.78544651385806   -6.23325401060544
H         6.96096874174616   -2.49744762683187   -5.55759197825440
