35
 energy: -44.226527910925 gnorm: 0.087136140386 xtb: 6.4.1 (025e99ea0bd20707e8cccc6e19fe66a0758c6dd1)
C         2.05462979744716    2.05373695417200    0.57890963541147
O         1.40636344406671    1.23900887037012   -0.38889420300009
C         2.20542459518383    0.35245030436611   -1.05686296966695
C         1.61208404036032   -0.13892916966734   -2.22054783986862
C         2.41008697934640   -0.64050371902092   -3.25355662325219
C         3.77537709613200   -0.89057401556953   -3.05777283514281
C         4.34344506243675   -0.45848498237175   -1.85193884444512
C         3.56484659410929    0.13746832521330   -0.84570898277793
C         4.55222093473540   -1.28778487463999   -4.29607188041065
C         5.30155875945865   -2.61092158181226   -3.98570393485493
C         4.57045362827319   -3.93956441716405   -3.73105450114502
C         5.42626109509638   -5.17560934926683   -3.99110816610092
C         5.90958731880712   -5.27483563825040   -5.42495183725295
C         5.73903798721520   -3.93846183859401   -6.11839083464039
C         6.22104332079904   -2.83269567112428   -5.19686340515961
H         2.43449344378631    1.47836681345578    1.42949130024428
H         1.27280370795352    2.73354470096598    0.93189858378132
H         2.87362289281114    2.62559065147774    0.13031245725033
H         0.55111402769298    0.04272212987912   -2.36824611465118
H         1.93449448339154   -1.03313879622931   -4.15056419792070
H         5.41048954318308   -0.50206204358021   -1.65809970678575
H         4.04789080935406    0.57017500480907    0.02533969602122
H         5.33137247387056   -0.53402386853436   -4.48038832956824
H         3.91181416785059   -1.29602028913683   -5.18852581267971
H         5.88985161553386   -2.42128440376274   -3.07211514327707
H         3.74727992075692   -4.09515073152670   -4.43694457478775
H         4.14750998962520   -3.90447245514338   -2.71620328154576
H         4.82792043945717   -6.06081631564656   -3.74016900544501
H         6.30555602701579   -5.26465038656455   -3.33982730641170
H         5.34363118533795   -5.99044859730095   -6.03511012322159
H         6.94689149077604   -5.62591331630052   -5.38321117102705
H         4.70751118512065   -3.74160630728196   -6.42995327201786
H         6.29328161232326   -3.85951372987726   -7.06262738246097
H         6.35395949276469   -1.91990565747754   -5.78630636567469
H         7.23427239945094   -3.12504855614544   -4.88323528878000
