35
 energy: -44.224225143260 gnorm: 0.094618673934 xtb: 6.4.1 (025e99ea0bd20707e8cccc6e19fe66a0758c6dd1)
C         0.75195119305280    1.22690215237090    0.31660971141826
O         2.14806793456602    1.11424316874029    0.07403729859772
C         2.69517742052557    0.57690163372307   -1.05848306488762
C         1.97069885139558    0.07042552320890   -2.13842844291545
C         2.73944494651347   -0.48601219865997   -3.16551137925775
C         4.13259894206670   -0.63408179651211   -3.21112797739131
C         4.79625675655123   -0.13165372805777   -2.08393584387400
C         4.08391549034944    0.47790363295008   -1.03756869770993
C         4.74339532260283   -1.32720868940076   -4.41160714174096
C         5.59634507462184   -2.57594707807953   -4.06281589002849
C         4.69813044169262   -3.67156094696415   -3.46490823618546
C         5.40311804948961   -4.98751092958461   -3.77972488937571
C         5.28040452588328   -5.25382364282235   -5.26746703813421
C         5.38046526163117   -4.00446785433533   -6.11889972196123
C         6.25624906582552   -3.00745666966113   -5.38185685346587
H         0.16466725871449    0.30710415493756    0.22769639041462
H         0.39015738543250    1.94665161119565   -0.42437460668990
H         0.70581072534567    1.58364408563161    1.35083020090950
H         0.88474953812505    0.08169063749364   -2.10592435113853
H         2.11442400892546   -0.87731256098363   -3.96626475579123
H         5.88013784146947   -0.18869213525751   -2.08615232878926
H         4.60379252124008    0.63776600974429   -0.09764078248132
H         5.35379809647996   -0.56267113701104   -4.91369887912553
H         3.90910128490709   -1.72605376878476   -5.00451416667432
H         6.32477970187928   -2.13310238776531   -3.36283960487385
H         3.68044349203543   -3.59179023378755   -3.86246673209013
H         4.52737578109302   -3.62419747051435   -2.37925851661458
H         4.93092926854128   -5.84361211639418   -3.28102468868182
H         6.43967691889769   -4.95445222767303   -3.41957564783051
H         4.29537778281008   -5.67520543873420   -5.50592266262869
H         6.05061073377367   -5.96148927739972   -5.59455955151587
H         4.35010894064532   -3.64533875376874   -6.21514387819353
H         5.88798410174866   -4.35197361849827   -7.02811137474870
H         6.35749194938911   -2.11367528356628   -6.00571584023538
H         7.21909339997831   -3.48572076806164   -5.14806161902625
