35
 energy: -44.226123664589 gnorm: 0.093340060181 xtb: 6.4.1 (025e99ea0bd20707e8cccc6e19fe66a0758c6dd1)
C         0.76525463321186    1.16655936138521    0.26516697308343
O         2.16765576455517    0.95159087524056    0.17721816786764
C         2.81865803382319    0.54814782430080   -0.95596179584199
C         2.09402361672030   -0.06345745921123   -1.97993113117644
C         2.76357118691139   -0.69242732685245   -3.03425357430499
C         4.15202157604635   -0.52894914459093   -3.13605697608058
C         4.85295750640398    0.21893184348184   -2.18065098249285
C         4.19966720705819    0.70676743218283   -1.03649073217664
C         4.89350172553671   -1.15829979072521   -4.29742353624668
C         5.42362258785935   -2.60160963509662   -4.08681790526978
C         4.35221379798869   -3.62183572826018   -3.66744366938461
C         4.87589978774850   -5.03771695219824   -3.88852000579440
C         5.32880101791163   -5.34973025326218   -5.30163215380461
C         5.60814837115965   -4.12060165398323   -6.14249337316968
C         6.26922240297096   -3.05484838817369   -5.28726717061225
H         0.29401955380455    0.19545090486367    0.44880308580986
H         0.49891704505312    1.67782983444802   -0.66524078431227
H         0.59642660850474    1.83632792657121    1.11482157108682
H         1.03247958945204   -0.21764085151153   -1.80724327550194
H         2.21053217598674   -1.23525861871336   -3.79875023634084
H         5.89216310193319    0.45336647210864   -2.38837346337945
H         4.85558745374907    1.24478616665891   -0.35855485476473
H         5.71122361270989   -0.49626738781546   -4.61718803593914
H         4.16505421873763   -1.18665221967503   -5.11914310377925
H         6.11212117634242   -2.53406463391666   -3.22768893453732
H         3.45970321596569   -3.49607242587623   -4.29010834802783
H         4.15265728729178   -3.54383330713183   -2.58849576268108
H         4.26774676603030   -5.90764657897222   -3.60933239673984
H         5.71443444690513   -5.01436673292222   -3.18030461765047
H         4.58797866631006   -6.00213090940729   -5.78148318587413
H         6.21032117870753   -5.99390287684742   -5.20696642147001
H         4.64661037129822   -3.72749294996187   -6.49002900711245
H         6.21002908570802   -4.34116058913785   -7.03361335281585
H         6.48059169030743   -2.28132361447321   -6.03243679340102
H         7.28567924794670   -3.37372725988500   -5.01231678682598
