35
 energy: -44.226656656958 gnorm: 0.093302443680 xtb: 6.4.1 (025e99ea0bd20707e8cccc6e19fe66a0758c6dd1)
C         0.84011740323339    1.14893465131527    0.17128138684261
O         2.25050721236740    1.31640120789640    0.11270726114580
C         2.81261749928524    0.63005236267024   -0.92826554398324
C         2.12856696752359   -0.06615735492449   -1.92578053681294
C         2.90088537646414   -0.54346961201579   -2.98935476352702
C         4.30220158139378   -0.51622630240103   -3.01066712096842
C         4.95271684694174    0.18927830462471   -1.98962310018636
C         4.18611812801589    0.84343311650085   -1.01070413265175
C         5.13843293778154   -1.21880664828283   -4.06030767361166
C         5.29872413470123   -2.75942990314712   -3.96380447159411
C         4.02966427641242   -3.57247903778196   -4.26891265179073
C         4.30500687663255   -5.07309529436416   -4.25554470693950
C         5.24763375039700   -5.37081512420115   -5.40540350096927
C         5.87750636520281   -4.14122138775792   -6.02765696980248
C         6.40638336166380   -3.29022915174207   -4.88732276784894
H         0.62946194934323    0.09599207322897    0.38522662729186
H         0.35086126359146    1.53764687956608   -0.72734146924301
H         0.44052501335781    1.67575343717901    1.04408930386054
H         1.04878397760508   -0.11250218676140   -2.03709173057110
H         2.45762306264376   -1.07039828483246   -3.83246673812235
H         6.01578937410177    0.15011048934462   -1.77421841937097
H         4.63047218219441    1.45777253345018   -0.23325371909440
H         6.13157124519585   -0.75076138941796   -3.99853986342904
H         4.82228712400135   -0.88858901477123   -5.05914239621609
H         5.58876521732065   -3.04862819891232   -2.93962883765394
H         3.69540598795674   -3.22358535175898   -5.25209495496151
H         3.22750044959757   -3.25744578679705   -3.58530237643422
H         3.40839970207143   -5.70327739217254   -4.31503816967680
H         4.74819130833780   -5.34470502737485   -3.28855434820884
H         4.62593626738763   -5.94105814848105   -6.10755485106050
H         5.98605948845879   -6.12015650708885   -5.09846265251285
H         5.26588229669280   -3.60119479895918   -6.75851815763968
H         6.75840621031878   -4.44975355192955   -6.60543272513458
H         6.95545364910437   -2.46884172340602   -5.35863988932275
H         7.17839322750052   -3.88545451426536   -4.37725071324074
