35
 energy: -44.225098654931 gnorm: 0.084307060838 xtb: 6.4.1 (025e99ea0bd20707e8cccc6e19fe66a0758c6dd1)
C         2.13913617853985    1.95127826462814    0.83796338717814
O         3.13222688269801    1.75675120816080   -0.16033789899646
C         3.02613117922415    0.77107739294666   -1.10260002968840
C         2.34211688328329   -0.44522262250026   -1.08240146086702
C         2.45180903733201   -1.32695371770954   -2.16222124426549
C         3.30067384789036   -1.08694090421592   -3.25158156913802
C         4.07437484906522    0.08066637715482   -3.21262287154333
C         3.87985264353931    1.00934542132144   -2.17648059388275
C         3.45902665185748   -1.92669024082392   -4.50233845244536
C         4.06490179214941   -3.31508091139052   -4.16497685529537
C         4.06430748681141   -4.12058033472830   -5.47487119026299
C         5.15773138970381   -5.18299216175377   -5.41531712103912
C         6.58220286223687   -4.73440333082882   -5.15262556286525
C         6.63285910779804   -3.34227292876593   -4.55659994372522
C         5.48053982406386   -3.19035178961436   -3.58020811816757
H         1.76902345215869    0.96336419900309    1.13101410934888
H         1.32066290609494    2.61322670223877    0.53810080351377
H         2.64833323944395    2.48484180656919    1.64730513866862
H         1.73771369396160   -0.69296790000211   -0.21419157979700
H         1.68817386363395   -2.10066000759610   -2.10553781572547
H         4.76296709830546    0.41016968215807   -3.98419580658217
H         4.49295191199364    1.90398158180286   -2.12145309319233
H         4.13331736198232   -1.45740314429707   -5.23330150501065
H         2.48705101772296   -2.06691624429146   -4.99454035090696
H         3.51952450082918   -3.78320306459461   -3.32824482900149
H         4.24357909531925   -3.40170949318659   -6.28183417398973
H         3.11107199299568   -4.65106300469084   -5.61617228194247
H         5.20233274505274   -5.60574209478460   -6.42718005165153
H         4.93808679656527   -5.89517104440759   -4.60920786314261
H         7.16872860775990   -4.77705637664180   -6.07937777044931
H         7.07333882421954   -5.45216630826369   -4.48584258489555
H         6.56699220445905   -2.63761328434563   -5.39265444700225
H         7.58448096124981   -3.10193007718320   -4.06501819097625
H         5.67286445505427   -2.21374980451733   -3.12462594043320
H         5.63531515947822   -3.88896968992909   -2.74447873891034
