35
 energy: -44.221189896593 gnorm: 0.096308819881 xtb: 6.4.1 (025e99ea0bd20707e8cccc6e19fe66a0758c6dd1)
C         2.76885156771148    0.70972823673845    1.05066200621822
O         1.92674559852315    1.01648993387639   -0.05271018383113
C         2.54533082918220    0.65012562532197   -1.21623783247588
C         1.71960745993139    0.38647029637085   -2.31000931077790
C         2.18296666305005   -0.26220523904774   -3.45892669143895
C         3.54574549939631   -0.56345092471992   -3.58918953650292
C         4.35565794123784   -0.03811140359586   -2.57356264970069
C         3.92528731964207    0.54729429647410   -1.37108365347422
C         4.12901669268794   -1.27681100911815   -4.79150373124949
C         5.01737583486883   -2.49572994491921   -4.42601661155899
C         4.01816951424212   -3.53711175829413   -3.89520262887177
C         4.55685883830476   -4.94702022246135   -4.11839165304842
C         6.06535732350824   -5.03376627903824   -3.99085651503347
C         6.58207415448005   -4.32818131976402   -5.22818962744221
C         5.84680879646537   -3.05158587223696   -5.59418098686135
H         2.16169658415726    0.50185133339736    1.93778453363199
H         3.46329637698695    1.52242066489340    1.28575609050867
H         3.30779575928610   -0.20427228094209    0.78020316569071
H         0.66171538729683    0.61039420223723   -2.20421807973808
H         1.49064122381814   -0.68412965106497   -4.18531390200201
H         5.40755431569375   -0.25640504965926   -2.72821839795921
H         4.59883080650758    0.91149546396982   -0.60102569712013
H         4.71736559918863   -0.59531863078055   -5.42286655901597
H         3.28360631969781   -1.59141152089092   -5.41837731485083
H         5.71582155291074   -2.12619761604306   -3.65639679769488
H         2.96447352601799   -3.53991388217763   -4.19490208227637
H         3.92196251706997   -3.43598518683706   -2.80407779773581
H         4.29991042969369   -5.27981338441338   -5.13219617200752
H         4.12040220036725   -5.71531432203913   -3.46686696238698
H         6.38833621874456   -6.07693775682596   -3.88049670699293
H         6.35454274018154   -4.48062819563191   -3.09007473240242
H         6.43238077529157   -5.02356431608213   -6.06119933722225
H         7.66295785146559   -4.17257904392087   -5.11647650233468
H         5.29431054292813   -3.36682351055339   -6.48506045655323
H         6.51870122409388   -2.24731254648654   -5.92910030864244
