35
 energy: -44.218074496984 gnorm: 0.094617796641 xtb: 6.4.1 (025e99ea0bd20707e8cccc6e19fe66a0758c6dd1)
C         0.94231378949027    1.48688920137187    0.30582468594759
O         2.27968246211888    1.70040777321125   -0.12606677007443
C         2.83175587814890    0.76761193754656   -0.96019741652175
C         2.17995612760044   -0.40128541094827   -1.35580492343283
C         2.74856114556669   -1.15986306748615   -2.38378405587408
C         4.01738226570258   -0.84570794842099   -2.89002809725803
C         4.78335368497977    0.12234750373045   -2.22700911732731
C         4.13819137107533    1.02635283682498   -1.36653577134181
C         4.54178288101382   -1.41905535453371   -4.19038345569799
C         5.41493847573607   -2.68763610547643   -3.99847632097956
C         4.49800824732372   -3.89445502508065   -3.73870741930993
C         4.98931273896961   -5.23235484236338   -4.28321212753367
C         5.21240165343269   -5.21161331179395   -5.78293173175669
C         5.66644353141819   -3.84560961377968   -6.25592170696286
C         6.35884281987703   -3.07165882259791   -5.14874324241557
H         0.72637042575968    2.22149225884413    1.08848883334809
H         0.89468843996915    0.48675691555367    0.74793218246349
H         0.27444702798001    1.54567999999875   -0.55991395784772
H         1.15914732003626   -0.60338913866992   -1.04343851031323
H         2.19219187175592   -1.99391713645120   -2.80778893011792
H         5.76900571441024    0.29978600082198   -2.64541339747500
H         4.64703875178064    1.73962959645728   -0.72497269188294
H         4.99858021727092   -0.53791545706683   -4.66381137775048
H         3.66001519826920   -1.69771099328947   -4.78325735190075
H         5.99556348160532   -2.39964139252700   -3.10593563940922
H         3.53937044026369   -3.68884914078016   -4.22742270036963
H         4.42567997007281   -4.08084628010342   -2.65701306069418
H         4.15024002905632   -5.91365522093285   -4.09252873176869
H         5.87446604077772   -5.55752410262138   -3.72105269654218
H         4.49477325450723   -5.54491706764684   -6.54360214145546
H         6.04360074974821   -5.89579302439887   -5.98788037664696
H         4.83161213702678   -3.27936937787083   -6.68288696540342
H         6.42382207133928   -3.89454819621525   -7.04900696016457
H         6.83439971476726   -2.18098096682010   -5.57163083351493
H         7.22432950526402   -3.63023329916331   -4.76222892637482
