35
 energy: -44.227414063923 gnorm: 0.099709512126 xtb: 6.4.1 (025e99ea0bd20707e8cccc6e19fe66a0758c6dd1)
C         0.73343930734596    1.04604878633853    0.01933339693912
O         2.11869327082337    0.74791246220088    0.13274226976172
C         2.68684147328823    0.37968050393245   -1.05565157030654
C         2.05983068576425    0.20408767327491   -2.29003151914446
C         2.82092750511787   -0.29747963861499   -3.35052889754376
C         4.15136761436173   -0.69667280304582   -3.16222746180447
C         4.72685406198828   -0.53587655342467   -1.89479003394243
C         4.02171103398409    0.05284367391068   -0.83174900232580
C         4.92656069581830   -1.08017620121899   -4.40587054641891
C         5.80940821185695   -2.35181918938192   -4.29618680883330
C         5.07372501229605   -3.32739049590876   -3.36254678928328
C         5.55946409627523   -4.74438283485678   -3.65242893509585
C         4.98959870196592   -5.21064546436486   -4.97802704978847
C         4.92520904108975   -4.04234654155086   -5.94071663985001
C         6.07256898432287   -3.10529611681630   -5.60941252272916
H         0.14614817749175    0.13892082811121   -0.15686067990034
H         0.50098092852164    1.82047649737858   -0.71837699614732
H         0.52250601608454    1.35902814478097    1.04722290485593
H         1.00198702911798    0.43010829747956   -2.39177036052503
H         2.35778665566135   -0.52631779970829   -4.30870776407621
H         5.80363547069774   -0.62751320066492   -1.79379001249250
H         4.50168168405867    0.34001847860401    0.09908469837084
H         5.59101717044887   -0.29091792261347   -4.78636269227062
H         4.17346080566883   -1.21450280888947   -5.19419762573436
H         6.77645034772909   -2.15270546713447   -3.80437541757716
H         3.99956705208425   -3.36687046117662   -3.57403877212030
H         5.14351172745851   -3.06930336318367   -2.29551510707055
H         5.17327010153779   -5.31838970933475   -2.80040564737625
H         6.64427661732918   -4.89163659496623   -3.57025371810839
H         4.00560285374503   -5.66741709852856   -4.81125405763464
H         5.61766800161467   -6.00545477072680   -5.39612379167290
H         4.02309388853736   -3.42986089473859   -5.83621602253902
H         4.92301747814221   -4.27768917558790   -7.01291554767433
H         6.17599404220574   -2.35803882666640   -6.40263702917183
H         7.01820493006750   -3.65964143023893   -5.51486149050682
