35
 energy: -44.223424177048 gnorm: 0.092197439386 xtb: 6.4.1 (025e99ea0bd20707e8cccc6e19fe66a0758c6dd1)
C         0.76296373947952    0.83323815107071    0.29791559125731
O         2.06168851618581    1.29002088838502   -0.05611671172539
C         2.65395637336660    0.52682903561750   -1.02432333178693
C         2.06513944682291    0.22658199742169   -2.25347572137381
C         2.82318885383099   -0.38408595535005   -3.25743716727248
C         4.19911563450464   -0.64223970165113   -3.18626382507604
C         4.78994970062618   -0.25398469526504   -1.97646595573310
C         4.01996699356282    0.27504074949226   -0.92711704280921
C         4.89966243867014   -1.21696069331406   -4.40017372687959
C         5.76935169895293   -2.48142868841599   -4.16933301712970
C         5.05390618618095   -3.58016056245425   -3.36585382523180
C         5.48373655536901   -5.00035763725326   -3.72099819643936
C         5.00366175736694   -5.22393226876371   -5.14187832543609
C         5.00868442928821   -3.96137827661285   -5.97959655891524
C         6.11347099700622   -3.00291863046829   -5.57331770592159
H         0.44496343063026    1.29608154064494    1.23785609899803
H         0.56741703096421   -0.23942643044232    0.39353975960648
H         0.10528178594418    1.16850926495311   -0.51082015042178
H         1.12418167565108    0.73016434413168   -2.45712399705908
H         2.29720444793336   -0.55396623759424   -4.19522936054816
H         5.81315275380171   -0.54890917921262   -1.76639086912175
H         4.51567032294342    0.42510086455842    0.02737379139319
H         5.50739514593736   -0.40103705046543   -4.81746844959753
H         4.17014868993953   -1.47203147041328   -5.18082169521915
H         6.66322959991071   -2.15529077763384   -3.61137999239035
H         3.96792265720745   -3.58584769360741   -3.50976449217016
H         5.18562853843171   -3.30577688439625   -2.30878306927736
H         4.98862877779676   -5.69788971479635   -3.03332773402169
H         6.57560921351336   -4.98139548290846   -3.60826320738836
H         3.99218389797280   -5.64839217529773   -5.17992716159282
H         5.60134456782946   -6.01498301223846   -5.60879560224261
H         4.04628256736634   -3.44235202456497   -5.91428804921461
H         5.10847838668387   -4.27842174160753   -7.02579255631577
H         6.31278615448090   -2.15873040600171   -6.24108640030244
H         7.07237719214115   -3.54199687291010   -5.55435654570826
