35
 energy: -44.216897112245 gnorm: 0.092764286010 xtb: 6.4.1 (025e99ea0bd20707e8cccc6e19fe66a0758c6dd1)
C         0.70242785832292    1.11222556980786    0.11731337676480
O         2.09116714260481    0.81622397684768    0.05051798467513
C         2.70656286595317    0.25297608720665   -1.03332101626497
C         2.12029250593068    0.11022299617969   -2.29172391553558
C         2.86390271719736   -0.31929910654809   -3.39537578776880
C         4.22599772260283   -0.64129009248331   -3.31854790563758
C         4.67776119783065   -0.68761414662790   -1.99295310046003
C         3.95994436835565   -0.32249054476893   -0.84173713805270
C         5.05307319810667   -0.95008678394128   -4.54949797500537
C         5.80216801064231   -2.28827327425270   -4.31150625843290
C         5.12313451881334   -3.19199864234835   -3.26898680499270
C         5.41816667700971   -4.66920926364134   -3.51115660340257
C         4.96198129363428   -5.18866959681226   -4.86075418308431
C         4.96633587957149   -4.09307971750754   -5.90741721527966
C         6.00157075308840   -3.01264514235847   -5.65205346251963
H         0.05598257709473    0.23057489525146    0.05700634586745
H         0.30478201469823    1.82501284069769   -0.61193547320068
H         0.65013385894925    1.47445007878440    1.14933300508948
H         1.06991971853969    0.34717781793881   -2.43677130194858
H         2.36298227718688   -0.37704342210965   -4.36011275270402
H         5.75488240933983   -0.78165703638678   -1.89796717350877
H         4.39450253200065   -0.44067116507996    0.14643547783061
H         5.71139556061867   -0.15767223506365   -4.93407067410994
H         4.30372056088509   -1.09070597453780   -5.34029475160917
H         6.83459065423329   -2.13152915262731   -3.95621766103314
H         4.03988834802806   -3.03010670178344   -3.29070279243642
H         5.54381872246973   -2.84157432012199   -2.31490957385001
H         4.88984092796993   -5.08787906145396   -2.64503832045001
H         6.49135836605301   -4.85732287575165   -3.37651816054043
H         3.97757668115141   -5.66620745730974   -4.77353872147435
H         5.67011469735480   -5.99674602374794   -5.07652567153963
H         3.97702209587063   -3.63770100575121   -6.02471709609060
H         5.13953703703079   -4.44837595891954   -6.93151066705029
H         5.98527265147140   -2.31864205404657   -6.49845136288047
H         6.97513099849025   -3.51442239652948   -5.75629359182360
