35
 energy: -44.216384137944 gnorm: 0.101754003563 xtb: 6.4.1 (025e99ea0bd20707e8cccc6e19fe66a0758c6dd1)
C         1.48757692591045    1.67314015290336    0.60528055605164
O         2.68485670693491    0.93928962910865    0.38469066977584
C         3.02413950701116    0.30947414559528   -0.78102228541157
C         2.13350694479894   -0.34482152766782   -1.63327813888850
C         2.60406926924174   -0.79685459941234   -2.87010069707536
C         3.92611834561691   -0.64139366539946   -3.30930641594958
C         4.84323841503795   -0.14192599652635   -2.37503633801305
C         4.35853764999772    0.39329765127517   -1.16984952524772
C         4.31271903888960   -1.16789298604032   -4.67604915035522
C         4.96329190310392   -2.53486041100706   -4.33446284271179
C         3.84815991827509   -3.58702292205860   -4.21577183664349
C         4.17727344494995   -4.87887711267103   -4.95782200140277
C         5.63465946463400   -5.26531264735439   -4.79641773058614
C         6.66704003162300   -4.17715162490635   -5.01074366550006
C         5.88756038311156   -2.96390134753987   -5.48476477111214
H         1.44490217495761    1.98320960208214    1.65450510499249
H         0.59425025428282    1.11365503172532    0.31043202908728
H         1.47224296726793    2.56078588045293   -0.03569970646690
H         1.07161603454494   -0.47793230543251   -1.44582539118676
H         1.87989537567699   -1.24733375017025   -3.54657228784569
H         5.90526530171505   -0.27624188366163   -2.55424186607383
H         4.98473463653404    0.89217228351136   -0.43616429676588
H         5.06667296551827   -0.51983999769546   -5.14592799598930
H         3.47158978571644   -1.28198582100548   -5.37329162865385
H         5.57248342634989   -2.44904773736827   -3.41892087180678
H         3.06186039183187   -3.04369064148172   -4.75114641885638
H         3.59909584874589   -3.63591302596973   -3.14543888986168
H         3.98508293097607   -4.74576967957625   -6.03016457494826
H         3.52766704363570   -5.62949897403763   -4.48895849364177
H         5.83454860780597   -6.17345207528836   -5.37953735561712
H         5.76307941135629   -5.63108422900241   -3.77137273990972
H         7.43442764749151   -4.47815861208677   -5.73211862899169
H         7.28589124558293   -3.94660132041007   -4.13389066115615
H         5.37865092341784   -3.14892003278459   -6.43611884357536
H         6.57203094821571   -2.15239413425748   -5.77359354452505
