35
 energy: -44.228140239349 gnorm: 0.085703099465 xtb: 6.4.1 (025e99ea0bd20707e8cccc6e19fe66a0758c6dd1)
C         2.31100813728833    1.82217347340182    0.92417208520896
O         3.30803935893410    1.69459995847280   -0.08097920334885
C         3.16751893107856    0.77403831132183   -1.08272134631655
C         2.29410043336675   -0.31279357251614   -1.14276978552982
C         2.35519937721914   -1.22200192569409   -2.20347705745918
C         3.23813935423594   -1.12909881589999   -3.28822104150811
C         4.11444810530804   -0.03947208271530   -3.19747794912502
C         3.98775876293180    0.93764580093399   -2.19594667315360
C         3.31338597964839   -1.98784705993341   -4.53382800375910
C         3.92185336220799   -3.39372581659916   -4.28523490497838
C         4.15133021502266   -4.24621055968422   -5.54430716824733
C         5.32394829807075   -5.19542495669762   -5.31671045744287
C         6.63739384641945   -4.44381934705735   -5.22023472178671
C         6.49057925646750   -3.15361868249240   -4.43942272727938
C         5.26285029123502   -3.23914712120294   -3.55081300744345
H         2.36715179332231    1.05163671758549    1.70003118989067
H         1.32108578032443    1.81383118877372    0.45729315683518
H         2.52111764737950    2.81793301733587    1.32830411177675
H         1.46573789875521   -0.36839663732158   -0.44191806482566
H         1.58441183386927   -1.98829689395170   -2.26390620712185
H         4.81888687868384    0.16662563153164   -3.99706924465198
H         4.69300319131124    1.76342640921065   -2.19290205142776
H         3.97370577553077   -1.46704334890636   -5.24230988962784
H         2.33249447898173   -2.15758888669224   -4.99826555663832
H         3.23745829536737   -3.98909260964417   -3.65767057134991
H         4.60182216927496   -3.63817394658191   -6.33642542112110
H         3.19586598042965   -4.66121520033579   -5.89771204679862
H         5.37544237588768   -5.97336166825251   -6.08919748521778
H         5.23801928945018   -5.74758727555652   -4.37173023473685
H         6.98632413622685   -4.21098122095239   -6.23450068600501
H         7.38439100120392   -5.12541304335639   -4.79783319685193
H         6.40205041449278   -2.27080827479115   -5.08182386679314
H         7.24669313173718   -2.94038745583024   -3.67272480116409
H         5.14167942998566   -2.28700035646855   -3.02447710459389
H         5.42462400851801   -3.97978538838443   -2.75347356333600
