35
 energy: -44.226816812050 gnorm: 0.097359022026 xtb: 6.4.1 (025e99ea0bd20707e8cccc6e19fe66a0758c6dd1)
C         0.89949824200485    0.94181209633738    0.54242209428895
O         2.14081286147864    1.36835252864131   -0.00335867606363
C         2.74728306472363    0.70589921364941   -1.03487046316967
C         2.03856967972314   -0.10503102012290   -1.92244397938398
C         2.70325248231711   -0.69235816969871   -3.00352512387570
C         4.08555031823589   -0.61262352511538   -3.22210833300129
C         4.77000859046110    0.19232819672947   -2.30177830058541
C         4.10388174162922    0.89607258479550   -1.28448124012920
C         4.71948777279570   -1.26058482368301   -4.43574617124269
C         5.40344956104290   -2.59349460283827   -4.03068570367819
C         4.28178786009635   -3.62636951979790   -3.83144394213343
C         4.95690567491768   -4.99276443676324   -3.90231197503606
C         5.32747227492678   -5.37344931844283   -5.32256448344242
C         5.84720995351047   -4.15003028993013   -6.04985966238593
C         6.39390217049492   -3.11464339130124   -5.08375286047837
H         1.02240101926380   -0.08080102217931    0.91389709034523
H         0.11199408213242    0.96365978731290   -0.21741451805009
H         0.83006678430486    1.70109206184215    1.32834764981014
H         0.97639431803473   -0.24357209611778   -1.74062207746260
H         2.07328597228784   -1.26856381353407   -3.67887863295998
H         5.84737596695619    0.28672954766355   -2.39356293090072
H         4.71646165178138    1.56325493862051   -0.68539347937954
H         5.50459394449450   -0.52431542445449   -4.66095941642101
H         4.03324427588201   -1.44655406288084   -5.27309196439518
H         5.94151660473652   -2.55126583350745   -3.06871074935590
H         3.60075369330631   -3.55571405729771   -4.68660657193731
H         3.88632201825551   -3.45880054298996   -2.81874301114461
H         4.25503720359018   -5.74292197381974   -3.51602491077228
H         5.87888230311675   -4.96420923479096   -3.30699832504391
H         4.34325661932149   -5.54862053849896   -5.77570461021038
H         5.98223160302057   -6.24784248089327   -5.41045410007605
H         5.06938576345181   -3.66648485117315   -6.65072914452182
H         6.71992422932199   -4.43755549838184   -6.65044313381165
H         6.81707390263473   -2.29194781197906   -5.66889642475192
H         7.23967455827767   -3.50730344328618   -4.49984094668569
