35
 energy: -44.220435422121 gnorm: 0.090826359068 xtb: 6.4.1 (025e99ea0bd20707e8cccc6e19fe66a0758c6dd1)
C         1.02753123255461    1.06616976156795    0.47483791687541
O         2.38511398577602    1.30797057120931    0.12961797582351
C         2.87414082490501    0.67195269112724   -0.97808282232431
C         2.15292960207243   -0.20676746908686   -1.78763484567371
C         2.69012110484208   -0.84472508428549   -2.91010007838689
C         4.02963869785236   -0.62903759748155   -3.26231455420415
C         4.72925603734068    0.35479554927793   -2.55094568879079
C         4.16881181174998    0.95021105534224   -1.40846721175049
C         4.69079656012569   -1.33845291201373   -4.42603596061764
C         5.25923868393918   -2.66996020924563   -3.86702965122916
C         4.16659762869773   -3.74898256486471   -3.94764678168332
C         4.84076658655117   -5.11440792626259   -4.04225760687819
C         5.34662335323065   -5.21977034213055   -5.46786816550913
C         5.89572341082753   -3.88612513347455   -5.93232401511888
C         6.44048759832569   -3.11661903430413   -4.74263787673361
H         0.85632923563600    0.04318918843098    0.82560418687883
H         0.31332602081355    1.15035258909265   -0.35027781128173
H         0.68541414580800    1.74192079805698    1.26561108379191
H         1.08055476504008   -0.32816819903988   -1.66216215474729
H         2.05039018666352   -1.60779334692333   -3.34992307985746
H         5.69098290674668    0.57514840405559   -3.00325369550158
H         4.61339931686889    1.71483690596757   -0.77840226542680
H         5.56351919988016   -0.78718269872385   -4.80506322587698
H         4.08804976767110   -1.56547964362927   -5.31587742372292
H         5.59475141206518   -2.56241254508696   -2.82177373384471
H         3.57910468571754   -3.57968328889560   -4.85665318989745
H         3.42335401541361   -3.71335185229493   -3.13748929661752
H         4.03850485831128   -5.85787967402705   -3.95170785701809
H         5.56811132424848   -5.19245103853166   -3.22364075568540
H         4.55408432158380   -5.60650443783770   -6.12133584628606
H         6.08082882912223   -6.03288671477644   -5.43990660037320
H         5.15415937991238   -3.18339920940324   -6.32745672826227
H         6.58924158793884   -4.17795662901611   -6.73161643631434
H         7.02364443577453   -2.23893270327034   -5.03910057222671
H         7.22165438924407   -3.73228041924295   -4.27231301716854
