35
 energy: -44.215882810211 gnorm: 0.108616915837 xtb: 6.4.1 (025e99ea0bd20707e8cccc6e19fe66a0758c6dd1)
C         0.85055533170475    1.21496488466283    0.24602306755524
O         2.26746129269809    1.21980413384917    0.13187643228372
C         2.85631767125177    0.50772272975677   -0.87651600561776
C         2.15000887013253    0.07326682439076   -1.99903334732401
C         2.77480248228147   -0.41500422639907   -3.15086543455489
C         4.16222272398314   -0.61315724646849   -3.17701803634836
C         4.84515510592047   -0.07240804046380   -2.07946102324976
C         4.24713056444233    0.49616484065970   -0.94237441025996
C         4.96173377709482   -1.14879689690114   -4.34685543925335
C         5.27549514745726   -2.66297382060235   -4.21514282817867
C         3.97673921183129   -3.48485347183412   -4.26412943388333
C         4.29571427050248   -4.97308676820958   -4.15802585053803
C         5.58040219880306   -5.43357810217092   -4.81899667078286
C         6.12906372182291   -4.46725589624242   -5.84906054012160
C         6.37621770982856   -3.12612064328379   -5.18232828862518
H         0.35105215217175    0.32121962211095   -0.14198767092711
H         0.39862912288398    2.10706589653682   -0.19884802141774
H         0.70890062490864    1.28495679062908    1.32955472251099
H         1.06385164710121    0.10026281792807   -1.99729262697423
H         2.08067298900939   -0.70661955473858   -3.93707013994571
H         5.92916709835940   -0.02414115662381   -2.05406812921883
H         4.86085134607234    1.04063989213482   -0.23090670524347
H         5.85845389942178   -0.51259887802033   -4.32813571911162
H         4.45239873720987   -0.97851998133196   -5.30510710381523
H         5.61250551643621   -2.72897348264712   -3.16692372957267
H         3.52225688286661   -3.29206406158236   -5.24207672618078
H         3.24537204866136   -3.08767520176785   -3.54483307040547
H         3.39813283944015   -5.35414853072805   -4.66172505060724
H         4.27962434716927   -5.27556139131414   -3.10279845389768
H         5.29107697793991   -6.38759712542782   -5.27816984693385
H         6.25302205044491   -5.63270332769935   -3.97701719139025
H         5.52470298125147   -4.10129774658439   -6.68613492349386
H         7.08260042833491   -4.88790787249776   -6.19376493663899
H         6.48540784099816   -2.26553956013783   -5.84999065470905
H         7.33417824906071   -3.08586699141512   -4.64273842977664
