35
 energy: -44.223142064508 gnorm: 0.092992767958 xtb: 6.4.1 (025e99ea0bd20707e8cccc6e19fe66a0758c6dd1)
C         1.20874457799382    1.25321753700203    0.71460150141818
O         2.52922905922939    1.45579190104766    0.22884462688464
C         2.94625365493218    0.82968391733348   -0.91341032006910
C         2.09939568706775    0.36469007605289   -1.92052578923239
C         2.52601773244377   -0.48027048311601   -2.94985962078540
C         3.90722719472091   -0.63629536495649   -3.13096784280224
C         4.77136057419979   -0.15486684915434   -2.13852748956455
C         4.31508708168714    0.62024755000451   -1.05922834943792
C         4.58582122675499   -1.26364956564576   -4.33121122383641
C         5.18583417544842   -2.69169587368678   -4.23532399690833
C         4.19120669682634   -3.79856578257982   -3.84775722075129
C         4.23064833280006   -4.93359350425340   -4.86657900589154
C         5.58675638644953   -5.51721178832049   -5.21258249084545
C         6.59895585752053   -4.40964918906221   -5.42376243015387
C         5.92134977990551   -3.05582553280028   -5.53454270048233
H         1.18158179139167    1.47469734889054    1.78653677582044
H         0.85576182523419    0.22533287353316    0.58480128556856
H         0.57882333950350    1.89886290786148    0.09383821469862
H         1.03456678138485    0.55904320829096   -1.82652793592320
H         1.82112837904128   -0.90095593883312   -3.66479168164690
H         5.83851125139751   -0.10138950774879   -2.32927892723156
H         5.02726411908232    0.95872068817092   -0.31254743396920
H         5.41497518351635   -0.59826276706648   -4.61222625958406
H         3.83134800466015   -1.19630846578213   -5.12676009454158
H         5.96560664040375   -2.68566628755295   -3.45518698046008
H         3.15620586684302   -3.44014592664515   -3.86803865203337
H         4.46072394619994   -4.17524915994639   -2.85000682674029
H         3.67540267302062   -4.53011272829884   -5.72301283066624
H         3.54711122344203   -5.71406820155760   -4.50756520535362
H         5.29830172987782   -6.15725530454301   -6.05628836023588
H         5.92963426527886   -6.21457241886303   -4.43984665329283
H         7.10829752387458   -4.61978162588671   -6.37048637147055
H         7.41327602067783   -4.54680360326187   -4.70052471378751
H         5.18806666162892   -3.13465000396168   -6.34347897122231
H         6.58103002423337   -2.20703471720531   -5.76872658843526
