35
 energy: -44.223304056713 gnorm: 0.101964769689 xtb: 6.4.1 (025e99ea0bd20707e8cccc6e19fe66a0758c6dd1)
C         0.55965257942947    1.22158652550462   -0.38857719182828
O         1.85974161659626    0.72694819653368   -0.09570043501846
C         2.66716675715122    0.32129330873536   -1.12243108482160
C         2.25201300274031    0.02047880389479   -2.42044003513414
C         3.24596133348032   -0.39520774176645   -3.31193554516850
C         4.60373472543347   -0.61041073629272   -3.03803299948810
C         4.90484049461524   -0.31160513934966   -1.70255995442223
C         4.00072929653711    0.18169604890233   -0.74699137468590
C         5.49790312712519   -1.08595986846509   -4.16451566228098
C         5.88072211089093   -2.58659886471252   -4.06422414504900
C         4.80775729432387   -3.41701864443465   -3.34048225964752
C         4.88575495451240   -4.90954511311819   -3.64727617478659
C         4.67054399063518   -5.16485405867352   -5.12641759839617
C         4.94833134911089   -3.89506667144790   -5.90507915734997
C         6.19382764903846   -3.15078978394117   -5.45892711859401
H        -0.18724936585199    0.53611527771801   -0.80222318137307
H         0.64415899014728    2.10700946966569   -1.02644604823041
H         0.19279298055682    1.52733121094005    0.59678568152599
H         1.18275909349213   -0.00723495216491   -2.61122092241908
H         2.94305670761131   -0.72517012893427   -4.30407803298739
H         5.91090442039703   -0.52826683246153   -1.35766928318870
H         4.36833597723183    0.47103851693346    0.23302843951447
H         6.39996397083818   -0.45792881820560   -4.19720435364597
H         4.86240922531746   -0.95833533506417   -5.05137650195962
H         6.81204511824269   -2.59371727679453   -3.47322329559554
H         3.78308137732824   -3.11788646742573   -3.58677893893545
H         4.89642911012191   -3.36157674691316   -2.24544834743733
H         4.23548745288350   -5.47412374554512   -2.96685239612305
H         5.88962697315050   -5.25005535672111   -3.36170939334579
H         3.59508998077403   -5.37663293332989   -5.18342432932954
H         5.26064601974238   -5.94061739137248   -5.62738527262943
H         4.21303291635468   -3.08559932356219   -5.84207420675751
H         4.91171179618458   -4.11746920749189   -6.97941503483553
H         6.43155762841502   -2.34431701200716   -6.15991317009922
H         7.10398510919592   -3.76849128680342   -5.48182291582388
