35
 energy: -44.221945229212 gnorm: 0.105525817971 xtb: 6.4.1 (025e99ea0bd20707e8cccc6e19fe66a0758c6dd1)
C         1.33490924160580    1.45541478693425    0.66918900885360
O         2.67911580913537    1.41974519673661    0.20819902672224
C         3.02365480186420    0.63496660792327   -0.85767269866475
C         1.99619762524511    0.24093448721590   -1.71600811903097
C         2.40688847121782   -0.50495896316286   -2.82527311421824
C         3.74776744661155   -0.63063566237355   -3.21403066760407
C         4.70771501269933   -0.12602306237907   -2.32672883580985
C         4.38342382008769    0.43313387599119   -1.07931022516879
C         4.37647022396102   -1.32952155268607   -4.40186004422920
C         5.09290386513557   -2.69421134504675   -4.22055711079740
C         4.07221078578727   -3.83246229763888   -4.05556247681554
C         4.24047165156988   -4.94625947311002   -5.08463270413377
C         5.66387512637553   -5.46758154439371   -5.04585626949057
C         6.63747399639934   -4.35163122956907   -5.36616827378300
C         6.05929602542363   -2.94824563473004   -5.38807397103782
H         1.23795964605503    2.16358533703609    1.49860543274591
H         0.99767481596121    0.48823348282977    1.05496753057432
H         0.69327310275947    1.87613910543301   -0.11202791486430
H         0.94264755586615    0.33239805247297   -1.46673719385020
H         1.63218033344781   -0.89733089297625   -3.48166070083994
H         5.77329116719309   -0.23360158410010   -2.50288448544806
H         5.15391579394106    0.68547183173285   -0.35684205849545
H         5.12156310108862   -0.58159582931500   -4.70951089165232
H         3.63944778247965   -1.32644799838513   -5.21638514194014
H         5.64295163755896   -2.61395260965147   -3.26782357147449
H         3.08420379875210   -3.37200505164282   -4.16476031043739
H         4.26530568332103   -4.34239135804755   -3.10019737470638
H         3.94111087596562   -4.52873447519831   -6.05449319756038
H         3.54804980606546   -5.76218740315881   -4.83954447022517
H         5.75077253137882   -6.38552181709638   -5.64128542651237
H         5.83373215223492   -5.89876408523653   -4.05276615750770
H         7.05267416573602   -4.53919921696230   -6.36230976189645
H         7.55817712358254   -4.39428270800013   -4.76994008071532
H         5.50430022233968   -2.77451424520119   -6.31548562700089
H         6.92995331993020   -2.27630944679011   -5.35768317419022
