35
 energy: -44.216022495799 gnorm: 0.100788862624 xtb: 6.4.1 (025e99ea0bd20707e8cccc6e19fe66a0758c6dd1)
C         0.84118058680762    1.23121214930971    0.37910409333283
O         2.20491982248820    1.38747183246414    0.00968078724318
C         2.80075654702452    0.64326379866600   -0.97103327582454
C         2.08462713481031   -0.21740123262282   -1.80415008923117
C         2.80018367342170   -0.94888195917805   -2.75725430033834
C         4.12433738794979   -0.67822003308238   -3.12906417986369
C         4.84288898213874    0.11566859019271   -2.22525987494857
C         4.17193711329479    0.76913882836281   -1.17803751070774
C         4.80846863950364   -1.24848339710347   -4.35438513842465
C         5.45255254945482   -2.62638918998421   -4.04607081815391
C         4.28905774027896   -3.62553446093787   -3.93363685204176
C         4.93338589840428   -5.00817573920459   -3.96503319110215
C         5.23691617538051   -5.33247578722090   -5.41488029374765
C         5.75242345226997   -4.06616010145529   -6.06797789878015
C         6.43929952170571   -3.09168617663757   -5.12837021685501
H         0.53198220845564    0.20154504198245    0.58651277917433
H         0.14924337130243    1.73044176447134   -0.30645004656803
H         0.61355202224874    1.68149005683427    1.35092753843924
H         0.99979757899814   -0.21602029466094   -1.74404803383930
H         2.13442484555478   -1.53060556451503   -3.39234164862616
H         5.90256833246668    0.10826877981922   -2.45995416777686
H         4.64120346186014    1.48673284789422   -0.51159884195583
H         5.51817960835140   -0.56957149187994   -4.84894987965166
H         4.02986104897889   -1.31791750588404   -5.12614403840635
H         5.84895493383596   -2.56533939762179   -3.01853332734264
H         3.59667902665341   -3.65459178116327   -4.78208852474897
H         3.62604463109575   -3.46143774116128   -3.07135983705855
H         4.29045127100107   -5.78310713322677   -3.52835278574792
H         5.81815002571195   -4.92576945573881   -3.32031907807277
H         4.42635386644566   -5.68964995545853   -6.06304442702977
H         6.04707536103116   -6.06619656923216   -5.33554761987644
H         4.95677445737762   -3.56148959393877   -6.62665593823696
H         6.48281974289352   -4.35329519838405   -6.83549086467457
H         6.73613901519602   -2.18179818957043   -5.65967567273786
H         7.34313081351764   -3.53243401855489   -4.68194406986181
