35
 energy: -44.226466624106 gnorm: 0.090878074551 xtb: 6.4.1 (025e99ea0bd20707e8cccc6e19fe66a0758c6dd1)
C         0.99817018846551    1.37712687167250    0.48634686819396
O         2.36774149319739    1.25004131271030    0.12746097978228
C         2.77646771899757    0.57843425283835   -0.99171457001481
C         2.04276642743436   -0.34677205985535   -1.73558616466765
C         2.61163605430229   -0.91220826151105   -2.88108261247594
C         3.89278548163680   -0.55605085616927   -3.32458187496199
C         4.67380973771195    0.22854729827914   -2.46560304565460
C         4.10545044987441    0.82385346534786   -1.32698425042456
C         4.57539637310104   -1.24984960193607   -4.48532862810469
C         5.22004629106987   -2.60031701004452   -4.07400095776008
C         4.20473093719392   -3.75040224407522   -3.96868464753388
C         4.91843330662665   -5.09889413766627   -3.96236420767213
C         5.52447594112860   -5.31833401051257   -5.33492248984394
C         5.99674291739209   -4.03416996026424   -5.98586507259879
C         6.40520671853800   -2.97574624680233   -4.97732289246414
H         0.72701934239743    0.41687518327288    0.93715755042901
H         0.38110638666099    1.53775888504516   -0.40327182651661
H         0.92847060891400    2.20115327673085    1.20407120413988
H         1.07023944333857   -0.78504728975153   -1.52924803913943
H         1.90200834679415   -1.47206172646742   -3.48768440021280
H         5.73649368672400    0.43670016956385   -2.53930318650027
H         4.76658774208896    1.35936355494751   -0.65213684528263
H         5.38369341150339   -0.59210924635320   -4.83638254738628
H         3.84442871963806   -1.47824089848736   -5.27284775902826
H         5.71891187522030   -2.43578221771004   -3.10407484849398
H         3.47452973433411   -3.83655580998473   -4.78077246140641
H         3.67995562916032   -3.68402653206450   -3.00419467407135
H         4.27536678027325   -5.95855904478464   -3.73429608982843
H         5.76689928754061   -5.11088057079237   -3.26578941056965
H         4.74323274786390   -5.68179975085257   -6.01481447809477
H         6.36886902045546   -6.01450134450245   -5.27705077321688
H         5.23744853129648   -3.56794978139173   -6.62303190846969
H         6.90579228027152   -4.30178070960739   -6.53995459739538
H         6.86089380340948   -2.04369027447696   -5.32648799283490
H         7.16756235752384   -3.38860549769473   -4.29995512643917
