35
 energy: -44.217095711037 gnorm: 0.093195813127 xtb: 6.4.1 (025e99ea0bd20707e8cccc6e19fe66a0758c6dd1)
C         1.09860625419335    1.33732548985868    0.60508976346085
O         2.41115186228076    1.23666624620195    0.06865047430794
C         2.85376814174518    0.53554413337258   -1.01909292038617
C         2.13563579551333   -0.49270846752446   -1.63118097162003
C         2.74275240834525   -1.01910991923380   -2.77564757239886
C         3.97066103497285   -0.55870932331348   -3.27077912472971
C         4.67002578234207    0.48186409182221   -2.64505258680115
C         4.11826484455071    0.94150884169090   -1.43750919647791
C         4.58403557721824   -1.37417643602684   -4.39034708691212
C         5.10931703309094   -2.74334012615194   -3.88241365161886
C         4.06886023742261   -3.87446712909602   -3.93393258939079
C         4.82018629204079   -5.16030482150393   -4.26555285036042
C         5.41861773057246   -5.17877060111492   -5.65871350127754
C         6.06033233526579   -3.82625585168942   -5.89269185559878
C         6.41476397833752   -3.07439084379596   -4.62251943230673
H         0.50469637448245    0.42099800772548    0.68541005926055
H         0.52457879261371    2.09846000777008    0.06735514720697
H         1.31129317166953    1.73974556796449    1.60099544430169
H         1.07946859312839   -0.72788251470489   -1.53282783108749
H         2.24602083079479   -1.75046613283988   -3.41074516332936
H         5.51847853187555    0.93109518983587   -3.15138829802822
H         4.60875216285788    1.77746899359306   -0.94772821839390
H         5.48194245904736   -0.83136343514232   -4.71947109764599
H         3.84266728119083   -1.48191550426547   -5.19373243621595
H         5.36671505640026   -2.54369978427708   -2.82857058033014
H         3.40885351799170   -3.67507660785294   -4.78524769180358
H         3.47226225428499   -4.07309704084693   -3.03135141769500
H         4.16862736768663   -6.02749749500062   -4.09815747401774
H         5.63726296929747   -5.28699123230355   -3.54334034644853
H         4.77960789443888   -5.34083950206043   -6.53626776604778
H         6.16194495222063   -5.98167133071361   -5.59696542371029
H         5.34414925056497   -3.24623811779669   -6.48474929739167
H         6.95255729536933   -4.03853165454597   -6.49591243132445
H         6.86966370180401   -2.11654825956839   -4.89436341144934
H         7.12688425740189   -3.67810559885283   -4.04038613702587
