35
 energy: -44.221942466201 gnorm: 0.095817218381 xtb: 6.4.1 (025e99ea0bd20707e8cccc6e19fe66a0758c6dd1)
C         1.25778145502098    1.26305261401977    0.72944059333976
O         2.59180932975695    1.36050010892181    0.24824523004169
C         3.01886668270262    0.79278694745647   -0.92051087416226
C         2.07690026044010    0.12276685267059   -1.70245816305011
C         2.47981288859436   -0.52913016889603   -2.87215235889987
C         3.81770356773581   -0.69291650514814   -3.25699786783235
C         4.76043831899951   -0.16671048174388   -2.36380351999407
C         4.35408780319093    0.63037616242003   -1.28056459729213
C         4.32537546142233   -1.36224358483293   -4.51752069893475
C         5.23564066703145   -2.59006045399396   -4.24843121107647
C         4.41119804710624   -3.79598422418028   -3.76812396067593
C         4.08839503614882   -4.77625225137460   -4.89182953343685
C         5.37849233388121   -5.37638677541711   -5.41608642146527
C         6.55437334987965   -4.44675449304815   -5.19489124542181
C         6.14519929119972   -3.00187535579505   -5.41661546561129
H         1.35504747391780    1.60681837345322    1.76442889280036
H         0.99226832907261    0.20253321354240    0.78229112747977
H         0.48329590810537    1.79196881745230    0.16426314416516
H         1.01366337060425    0.30241978973616   -1.56933618535336
H         1.75781091481510   -0.97761339907195   -3.55226193634226
H         5.82447597611425   -0.37281386213746   -2.42212798468365
H         5.16629077739230    1.04042085052049   -0.68770521166692
H         4.95239054880359   -0.63265878936232   -5.05021519479267
H         3.47250102190759   -1.58970683107971   -5.17137719882252
H         5.97136063262483   -2.29979836412855   -3.47956238516624
H         3.47063423276803   -3.43313087277719   -3.33942825668334
H         4.95160492356998   -4.33873086763972   -2.97855303089679
H         3.71162788115759   -4.18174876361442   -5.73396104925143
H         3.46057924256226   -5.54305326751414   -4.41947566829647
H         5.32990139625396   -5.56242143191004   -6.49670264101501
H         5.42654982611982   -6.35850382864796   -4.93221212404696
H         7.40620700520762   -4.67080997518719   -5.84608197058970
H         6.86738390281728   -4.43665543783120   -4.14278675369980
H         5.55471120746932   -2.78875115640900   -6.31338590407524
H         7.00063962624415   -2.31542115541795   -5.33019536659121
