35
 energy: -44.216558203989 gnorm: 0.092167706723 xtb: 6.4.1 (025e99ea0bd20707e8cccc6e19fe66a0758c6dd1)
C         0.54184813614898    0.90546086533220    0.03884990487485
O         1.95539664899196    0.75604254456259    0.02367965899224
C         2.68245113322213    0.34510340893755   -1.05945831639300
C         2.12796888576620    0.00496694201319   -2.29417523604349
C         2.95379989561278   -0.54095665819353   -3.28183074835752
C         4.35033594354502   -0.64494626960595   -3.22053835555327
C         4.85669249157907   -0.17997767603765   -1.99953671396162
C         4.05787685115756    0.19242981110011   -0.90542488900190
C         5.19311156039756   -0.99691428342725   -4.42904780899874
C         5.91980935045350   -2.36619976502206   -4.35492790727892
C         5.25231075713369   -3.31983095143644   -3.35009656875630
C         5.56721258714537   -4.79707440429567   -3.56557283266911
C         4.85576975093885   -5.21424560808493   -4.83804092521975
C         4.76492221642629   -4.03837197102461   -5.78930722049307
C         5.87836917760368   -3.00734230854565   -5.75090850006552
H        -0.05366510750476    0.00926028804832   -0.16369602311084
H         0.07493352134039    1.56752925645242   -0.69711747463624
H         0.24614926321167    1.29990766316255    1.01659203209384
H         1.05864666177432    0.05227973195889   -2.48067137939002
H         2.51858907695667   -0.99460356582684   -4.17052030891724
H         5.90702710056571   -0.28337692225757   -1.74623392710544
H         4.44146865711082    0.48911194805778    0.06623843872010
H         5.91888748632443   -0.19570934584636   -4.63035671392510
H         4.53120150605084   -1.00773243377842   -5.30564390673602
H         6.96639022983945   -2.13596608349618   -4.09347784537307
H         4.16054504935185   -3.23878854722914   -3.31031444327588
H         5.59127665431437   -3.04034394491257   -2.34162004454773
H         5.24304176780345   -5.44204361343988   -2.73883141363382
H         6.60982390758900   -5.07288449067957   -3.77086548309935
H         3.83101670435635   -5.44868740201613   -4.52241515712955
H         5.27811809781754   -6.14016390886195   -5.24460572731195
H         3.87447748676818   -3.53063705087646   -5.40306347456950
H         4.63366535084184   -4.30431082856578   -6.84621290093263
H         5.67045439667093   -2.22114537003664   -6.48368482300912
H         6.91486413118121   -3.31663907329606   -5.95210415822249
