35
 energy: -44.214312186520 gnorm: 0.112057934211 xtb: 6.4.1 (025e99ea0bd20707e8cccc6e19fe66a0758c6dd1)
C         0.95894394026471    0.84471317248845    0.30293049957596
O         2.29314880430900    0.35707421134565    0.25019528978795
C         2.87615826092888    0.27964553226318   -0.98462123067762
C         2.37427497538733    0.69522647209703   -2.21875042825428
C         3.14778497841243    0.33962020505290   -3.32812830911318
C         4.32374447950238   -0.42278584109418   -3.35532715585981
C         4.78137157822400   -0.73006098551394   -2.06707362466331
C         4.11949678609382   -0.34013475905010   -0.89074300559805
C         4.90619062684520   -0.90841778541102   -4.66664916367069
C         5.12877976652970   -2.43429739338257   -4.49151585676624
C         3.86250361608715   -3.24748610372189   -4.17541197321216
C         4.31483222746462   -4.65080968092002   -3.78308153720460
C         5.75934968404895   -4.93564947782381   -4.14583955167027
C         6.09454024857920   -4.57190928577026   -5.57803367527580
C         5.84308184535865   -3.07907107380273   -5.68967373567811
H         0.28342257060034    0.31043945106275   -0.37313075816081
H         0.90375573501548    1.87062402199370   -0.07449895369534
H         0.64545406054634    0.79807562529371    1.35105015118179
H         1.43813289945389    1.22591519884325   -2.36867307650329
H         2.83177784985030    0.76647113195550   -4.27834453788222
H         5.73695279461757   -1.24469338282169   -2.05844105307986
H         4.41487221406531   -0.64365222793000    0.10921853292752
H         5.81929523328017   -0.30240599008375   -4.75717543541509
H         4.17605761582009   -0.76593078631410   -5.47489783188626
H         5.85393370536534   -2.58630851418266   -3.67436250052215
H         3.34800571077328   -3.42388140510410   -5.12634806715191
H         3.17119392393281   -2.82769386767888   -3.42982418340336
H         3.68156190331128   -5.38930046331623   -4.29118923960663
H         4.30368843722177   -4.95970304331830   -2.72965125996470
H         5.91588665359380   -5.99912502376223   -3.92398976739070
H         6.41256063987605   -4.38820790911329   -3.45691216747280
H         5.61981203662253   -5.29525675449082   -6.24980175940305
H         7.16823005906420   -4.73896453261010   -5.73386753858526
H         5.14532691956725   -2.79651001170648   -6.48440175948838
H         6.73168242997410   -2.45979936782296   -5.88295468274729
