35
 energy: -44.222819608168 gnorm: 0.097448757472 xtb: 6.4.1 (025e99ea0bd20707e8cccc6e19fe66a0758c6dd1)
C         0.73778290347846    0.96403918259590    0.15260529250853
O         2.13946159306865    0.73734888011914    0.22030855868183
C         2.76377422953990    0.39207864763869   -0.94660585451935
C         2.10604634025697    0.10041901517279   -2.14243105270503
C         2.83714008895684   -0.27706114385319   -3.27314033412350
C         4.21161051855199   -0.55140565429268   -3.29434459078014
C         4.85333806783896   -0.27676855436619   -2.07935572763015
C         4.15059948197533    0.27783418299322   -0.99655902047943
C         4.89391603891355   -1.14650817498939   -4.50882368005580
C         5.66490625672690   -2.46008248558423   -4.21112788579586
C         4.61878930215264   -3.36131563842376   -3.53431848786222
C         5.21589460370485   -4.76405432129226   -3.59457506894254
C         4.99364082454370   -5.26441745219735   -5.00864641292366
C         5.33132881391938   -4.16987531799953   -6.00050526790046
C         6.26422283210702   -3.09301189061230   -5.47673559472739
H         0.13692263710873    0.10992809507860   -0.17648062906442
H         0.46464534047211    1.77160678440499   -0.53385099845920
H         0.45198178616743    1.21502481560288    1.17941087414778
H         1.04130253220197    0.21947376483610   -2.32302979337445
H         2.24439607601399   -0.43735993726963   -4.17199066990560
H         5.93105579841828   -0.31813966496579   -1.95741557215847
H         4.64735337866245    0.59554877453423   -0.08464587665100
H         5.68219004350376   -0.50476438128224   -4.92834043725107
H         4.14256100116035   -1.40096812701854   -5.26867787888594
H         6.43900429970212   -2.03850074252174   -3.54800174464703
H         3.61098168882358   -3.32302548323168   -3.96205734529647
H         4.48143841517184   -3.07695960750237   -2.48060498348892
H         4.86951264623735   -5.33500676253884   -2.72359503117659
H         6.29739275448817   -4.78144315868832   -3.40665481471743
H         3.93374393551391   -5.54732234372034   -5.04449043248464
H         5.60917499875489   -6.13909434135125   -5.24750994050961
H         4.39015434534657   -3.70323937249176   -6.31084751512400
H         5.69923176868832   -4.61351035222346   -6.93476263608337
H         6.41033689529331   -2.22738315988532   -6.13067206202419
H         7.27672936903374   -3.42841893773701   -5.20692344636703
