35
 energy: -44.222229693534 gnorm: 0.096156289970 xtb: 6.4.1 (025e99ea0bd20707e8cccc6e19fe66a0758c6dd1)
C         0.99083307437073    1.18111800034004    0.64675543423239
O         2.24123948612502    1.46469838463350    0.03296285092843
C         2.79988822276963    0.75385799135417   -0.99333368648999
C         2.08877697613069   -0.15940379979500   -1.77304064283411
C         2.63360158784431   -0.84271074225366   -2.86471394969825
C         3.98677137654053   -0.69760043655863   -3.20050860584854
C         4.67526697929959    0.31232985152558   -2.51534265745043
C         4.08948386365566    1.01491544882871   -1.44899090555489
C         4.62123634507039   -1.37247844256627   -4.39910829413300
C         5.30522559001370   -2.70225550762381   -3.98392417810369
C         4.20755705021302   -3.77568530534307   -3.89717692890124
C         4.77981646918223   -5.16464314084652   -4.16392905334600
C         5.34850105368842   -5.28304102719458   -5.56462086583589
C         6.17460716191779   -4.07096054913841   -5.94442247375661
C         6.51527158907587   -3.06671746033893   -4.85828052788867
H         0.79295279903133    0.10524806235735    0.60002615678511
H         0.17485210906911    1.77531230329161    0.22355336476663
H         1.12808402418392    1.49239289834724    1.68756083512032
H         1.05212855804231   -0.40582060116581   -1.56065385449081
H         1.98412842322225   -1.57355226724086   -3.34328304406198
H         5.67823375816714    0.61539599015612   -2.79865353012184
H         4.67549390591489    1.68318926422810   -0.82505587857683
H         5.40973215368025   -0.70893380596354   -4.78275944129770
H         3.82421980338866   -1.64304586781492   -5.10495571035237
H         5.69102788134052   -2.57275293633041   -2.95870181196461
H         3.42351869975084   -3.68371537569544   -4.65673485879982
H         3.86226603267890   -3.65159322274151   -2.86015666037367
H         3.98197476248994   -5.91581472917549   -4.10258386319597
H         5.59148797062175   -5.40891843130142   -3.46623743140739
H         4.51220720394038   -5.24080124164061   -6.27421919165918
H         5.83822108781745   -6.24421413854624   -5.75780032238256
H         5.64238800821086   -3.52434527738055   -6.73044112054517
H         7.17851708236134   -4.38275641757911   -6.26057064513700
H         7.06963918047721   -2.20969569893563   -5.25386312772758
H         7.12154250822565   -3.64833331542972   -4.14791122896681
