35
 energy: -44.211642578630 gnorm: 0.097355071530 xtb: 6.4.1 (025e99ea0bd20707e8cccc6e19fe66a0758c6dd1)
C         1.50256938726960    1.62740893214403    0.88699823293237
O         2.79553121761537    1.40405884218072    0.34015289116613
C         2.88626879509128    0.70809371121567   -0.83375780457120
C         1.95876067927382    0.38122114962849   -1.82398620535094
C         2.31049008749308   -0.36238420975505   -2.95484001883159
C         3.63701285638542   -0.77269820739474   -3.14683821353569
C         4.57240150192445   -0.29751285333515   -2.21802997850952
C         4.22540978960388    0.38851401989599   -1.04208850265352
C         4.14922001905529   -1.49063747463126   -4.37844463109349
C         5.12645454188914   -2.67587702703023   -4.15765953760355
C         4.33923104237906   -3.98878479880523   -4.01203956020100
C         4.29961015284455   -4.99331553086184   -5.15972836573354
C         5.72048770600514   -5.45392008577258   -5.42108672278872
C         6.71492299263102   -4.31703935908130   -5.30091883497581
C         6.09441394067222   -2.93186010448926   -5.32345116686618
H         1.52830911309568    2.56836235313245    1.44626604339905
H         1.21521311748532    0.69712061167145    1.38698005166298
H         0.75356567881577    1.77794966677480    0.10256423187379
H         0.92810295323709    0.69543184124663   -1.68439527154036
H         1.62246093003427   -0.53450326875190   -3.78065114562030
H         5.63144265188437   -0.44433184972729   -2.40493244381807
H         4.90563243242580    0.92474727034436   -0.38707426160519
H         4.63090639200242   -0.72581701899568   -5.00472989887096
H         3.26634262225147   -1.74118865082014   -4.98211199320199
H         5.57373460596503   -2.59845306682034   -3.15235297086862
H         3.30085060430698   -3.71465088784053   -3.79589258207694
H         4.81537710874361   -4.43683985083231   -3.12741118570897
H         3.95948658193029   -4.63146806395583   -6.13848050045606
H         3.64453915165447   -5.84898713974471   -4.95005547101057
H         5.60723964789152   -5.95394034519223   -6.39157938285709
H         6.00163728984209   -6.25045728794832   -4.72288821173653
H         7.40801944250451   -4.28655469495759   -6.14859730702509
H         7.32690246202981   -4.52537557773956   -4.41374432822517
H         5.49294602626106   -2.81847083343079   -6.23101633911063
H         6.84339820409439   -2.13540871128552   -5.44655160550812
