35
 energy: -44.220004130784 gnorm: 0.102081614695 xtb: 6.4.1 (025e99ea0bd20707e8cccc6e19fe66a0758c6dd1)
C         0.86381941303644    1.00528438958827    0.39096665664538
O         2.15466469964779    1.36931134830232   -0.08007282472434
C         2.76699380270899    0.67408798015365   -1.08624607810904
C         2.10275889329833   -0.23084253764009   -1.91543965777255
C         2.75775852099456   -0.86709703158557   -2.97451876397824
C         4.12337387323748   -0.60015262507148   -3.14398535235825
C         4.79997566718601    0.20620368001791   -2.21908682908379
C         4.14119209625568    0.87956209423418   -1.17674950131694
C         4.88608604420486   -1.17592964450201   -4.31931437032722
C         5.54127356860331   -2.53588543664475   -3.95907039411593
C         4.51083629722547   -3.64269296480247   -3.68009197572478
C         4.92246787668309   -5.09066038356872   -3.92867033346440
C         5.29748923137752   -5.31388491258575   -5.38087127051201
C         5.46341507782293   -3.99302523532359   -6.10449961158434
C         6.28127257014654   -3.11438344531359   -5.17532875205072
H         0.61655162123368   -0.05275369500060    0.25587260390008
H         0.05435092532353    1.61618374643073   -0.02080335488889
H         0.75426162485782    1.09589788514979    1.47668856022613
H         1.02814150841738   -0.36682897095992   -1.83073725185388
H         2.18891327684793   -1.40929498876021   -3.72778469655168
H         5.86699263750984    0.28196484348227   -2.40291155235933
H         4.61923370795204    1.64436491219990   -0.57189790966654
H         5.66462478578500   -0.42405754727982   -4.51366227749698
H         4.32594723749926   -1.16947438221126   -5.26422998135172
H         6.24678732774858   -2.46076925323468   -3.11449765460393
H         3.55917501854875   -3.47542037995198   -4.19629304372191
H         4.28904100665309   -3.61319738545989   -2.60307172220955
H         4.05715982807453   -5.74081744924074   -3.74670564811155
H         5.76917256662062   -5.23557443670802   -3.24504344113182
H         4.64045517347213   -6.07855302649186   -5.81479558221596
H         6.26645127797284   -5.82500272590841   -5.41034834144534
H         4.55552108717009   -3.48052438827896   -6.44056832249075
H         5.90113777382224   -4.26643777500361   -7.07333699812306
H         6.73422141651735   -2.31011861944299   -5.76379349410127
H         7.11448644969552   -3.71258259282887   -4.77736093855189
