35
 energy: -44.218129705309 gnorm: 0.104784053533 xtb: 6.4.1 (025e99ea0bd20707e8cccc6e19fe66a0758c6dd1)
C         0.90032925658066    0.95821321223065    0.12811838713385
O         2.29655624959638    0.71136018548653    0.22955383714744
C         2.85921183012830    0.35349544271390   -0.96460636813332
C         2.06578637057131   -0.18587775078481   -1.97812589620181
C         2.68566869193923   -0.61808585560957   -3.15474601149514
C         4.08449779844749   -0.61635052485349   -3.24506565188989
C         4.80133555719446    0.17061090321589   -2.33387243067490
C         4.23218577679362    0.53925862221127   -1.10340836163563
C         4.79713995560831   -1.11740934034528   -4.48431080252159
C         5.54979595507425   -2.42250198879315   -4.11179461818464
C         4.48752551363862   -3.40138045430234   -3.58450788621855
C         4.99907558719633   -4.83684592073201   -3.65931981003058
C         5.16728282180017   -5.26868566710607   -5.10312676710553
C         5.50353287571675   -4.06926179055059   -5.96577264729104
C         6.35603404951011   -3.01981364707312   -5.27572837076505
H         0.19558330192387    0.17533378968069    0.42689807803286
H         0.55959038221691    1.30369384692192   -0.85296874027515
H         0.63805506189530    1.74908573405145    0.83856801266146
H         0.98973699683186   -0.15438045461213   -1.83117357251373
H         2.14466699144779   -1.16551130469896   -3.92456133628503
H         5.86740181610193    0.27032980358748   -2.51167951963227
H         4.73828431543052    1.00732303931860   -0.26431805542732
H         5.43529788620034   -0.33180519664701   -4.91417811203369
H         4.15499830057183   -1.35034032759255   -5.34457815323024
H         6.27473386209429   -2.26264191458274   -3.29594842550319
H         3.55290397284517   -3.34294864941078   -4.15298932941473
H         4.17518009049649   -3.21612237584656   -2.54616519348472
H         4.18907879445477   -5.44278664000032   -3.23350950344592
H         5.91118114808700   -4.80072979076332   -3.04939054009425
H         4.26629012559823   -5.78908557236864   -5.45255127413868
H         5.97352146391588   -6.00732671911608   -5.17651895164047
H         4.56586271205547   -3.74716845412501   -6.43149932920458
H         6.04630532228241   -4.30701564176938   -6.88982493764681
H         6.63295883096401   -2.19174545164288   -5.93596397250342
H         7.28130009466763   -3.54250178823493   -4.99086731467149
