35
 energy: -44.220099198319 gnorm: 0.113597727296 xtb: 6.4.1 (025e99ea0bd20707e8cccc6e19fe66a0758c6dd1)
C         0.70338167723283    1.05746125505311    0.08704452727098
O         2.08127615355023    0.70807106250641    0.08409832977761
C         2.73857071727891    0.28575570760972   -1.03852389912627
C         2.03914253284898   -0.00535879729420   -2.21058268563999
C         2.73251167753169   -0.48726235292800   -3.32525798507905
C         4.12730136899490   -0.60967351715851   -3.25846936271544
C         4.80818689116873   -0.25133789391077   -2.08738942337401
C         4.12831086623500    0.37135111761050   -1.02724724889634
C         5.00863071273020   -1.05724770120554   -4.40632964795966
C         5.74957610829433   -2.40667041318223   -4.20990048595822
C         4.88741919429488   -3.34388176138270   -3.34794157307412
C         5.29785593418000   -4.79574384347090   -3.57483268913758
C         5.00961941029197   -5.22632070901692   -4.99992252382255
C         5.04901537162721   -4.01160689157525   -5.90477496954718
C         6.20083842377626   -3.10965215206336   -5.49975390533302
H         0.08455088540134    0.15482971479385    0.05326422131362
H         0.56786852463722    1.71430977783149   -0.77792830772527
H         0.63037631167068    1.48335678548819    1.09317025755756
H         0.95376374708706   -0.04387916958645   -2.17994948620511
H         2.29374720217732   -0.46628191121255   -4.32125931623874
H         5.87807318185911   -0.33881632865110   -1.92692966531551
H         4.67637134739309    0.49883416805447   -0.09844675273750
H         5.69827159483812   -0.29310395055098   -4.79322121907697
H         4.34077564509207   -1.28541894428778   -5.24809574466683
H         6.63403863101023   -2.17253952071201   -3.59378037758320
H         3.82663501113404   -3.24931315571058   -3.60464479462639
H         5.04980008828297   -3.10998593148417   -2.28541583252967
H         4.91187473716897   -5.57403561095608   -2.90412126524086
H         6.39254087524040   -4.87382631322492   -3.54615081540788
H         3.99646645071170   -5.63702784065041   -5.09760629182177
H         5.71964393667392   -6.00347504025847   -5.30470782764775
H         4.08718324236638   -3.49485171449038   -5.81694651561089
H         5.23256068319817   -4.29047497541413   -6.95050206953642
H         6.33088323226903   -2.36737050143079   -6.29373225244217
H         7.17574222620573   -3.61730892001019   -5.45165873421282
