35
 energy: -44.225574816947 gnorm: 0.076794022609 xtb: 6.4.1 (025e99ea0bd20707e8cccc6e19fe66a0758c6dd1)
C         2.47616593166504    1.88129214868448    0.78357341380693
O         2.11271691047158    0.63367920520113    0.20734244886629
C         2.58944752372002    0.32255014617234   -1.03627875193121
C         1.79549048622631   -0.54669876191995   -1.78575042643632
C         2.32937132222796   -1.11812258190021   -2.94503421270383
C         3.56838576187394   -0.68124489135815   -3.43377197499644
C         4.18583912120685    0.42685233915347   -2.83853286215930
C         3.76012084616349    0.85504085775127   -1.56995374909232
C         4.27194390374338   -1.40747255776163   -4.56171107942383
C         5.14897690866952   -2.56876011174573   -4.02249823766149
C         4.34933439305070   -3.82319816783274   -3.63312715669445
C         4.18555282134482   -4.61095732149307   -4.92944984691187
C         5.48523506316628   -5.33973684394135   -5.21063349995675
C         6.66872559456935   -4.40904163701941   -5.04035067114221
C         6.24487646685935   -2.95147682626203   -5.02951111318182
H         2.01107183242380    1.98006346314217    1.76986346265120
H         2.21496370625824    2.73366004202686    0.14856619281805
H         3.54808184657011    1.97429929193297    0.98692460862074
H         0.84890673367232   -0.83316177795327   -1.33587549290333
H         1.84363429682709   -1.89761122006076   -3.52935441311533
H         5.03712326522050    0.93569500023179   -3.27949876439943
H         4.32343681987695    1.56436764687908   -0.97093523224110
H         4.93487236584297   -0.67918818009121   -5.05092784094538
H         3.49737594035475   -1.68106363574192   -5.29099501267712
H         5.74386962428470   -2.21705988830554   -3.16278617668552
H         3.39078686911375   -3.50171775869094   -3.21129799571394
H         4.92825339743183   -4.39797486820537   -2.89521097172845
H         3.94952646480941   -4.00068870371800   -5.81060655749858
H         3.37565727334987   -5.35026341778409   -4.87700616794412
H         5.47755517991851   -5.55865323706646   -6.28614176066804
H         5.61901859913375   -6.29012311921964   -4.68161019527053
H         7.35308951484937   -4.56394986576330   -5.88149290655811
H         7.27754634318571   -4.64954382465767   -4.15915974380957
H         6.10318422641720   -2.61892041348891   -6.06277045096669
H         7.14395277659659   -2.47360776351855   -4.61265512097352
