35
 energy: -44.214956841935 gnorm: 0.104521235319 xtb: 6.4.1 (025e99ea0bd20707e8cccc6e19fe66a0758c6dd1)
C         1.02142366307691    0.85797280616833    0.56243280438905
O         2.26416712127580    1.25776269628033   -0.00009018993409
C         2.72706949002556    0.63482546988113   -1.12629518277138
C         2.15360647690103   -0.41073864316531   -1.85128146137339
C         2.86113515123918   -0.92341811595721   -2.94309453044183
C         4.12475468940758   -0.47474937776284   -3.35156185216735
C         4.70040635298933    0.47660537253252   -2.49892649827442
C         4.02122778272498    1.05927067923295   -1.41583275485136
C         4.78305308861593   -1.20212289668861   -4.50577946408644
C         5.26079050999492   -2.55678743442359   -3.91826170011587
C         4.18549057414978   -3.65052768572805   -3.80819289402923
C         4.77242816360003   -5.04328975350309   -4.01690200671332
C         5.19417051227877   -5.21861583302426   -5.46284527203119
C         5.98237028612136   -4.00604579460213   -5.91479069755927
C         6.41669197230909   -3.14383122354494   -4.74337639571320
H         1.10014372159081   -0.09824137120089    1.08996854200910
H         0.24181391451862    0.85886720819690   -0.20581171494572
H         0.89601789339911    1.63880656934792    1.31978199647273
H         1.22454742641364   -0.82351272617168   -1.46795892963325
H         2.27589938580770   -1.62657072017623   -3.53305098919200
H         5.70712303669109    0.77873421474599   -2.76965916273149
H         4.54908807990433    1.86940120569188   -0.92152048758648
H         5.57574476148033   -0.64811554172827   -5.02915416553046
H         4.24364688503244   -1.50618110440239   -5.41311193538033
H         5.66360930853233   -2.33281805398098   -2.91612899682525
H         3.33259505444136   -3.45691080444784   -4.46787811113394
H         3.62803935434078   -3.74054591537725   -2.86416926076123
H         3.96114718453251   -5.71958956798385   -3.71854800512008
H         5.65117772535489   -5.13219507865167   -3.36486696627492
H         4.31188376975585   -5.43463362388777   -6.07896847750236
H         5.72671333306425   -6.17348072105250   -5.53787162705204
H         5.47412155456529   -3.34704032769240   -6.62701665692308
H         6.94210555373749   -4.24442572658387   -6.39132472832975
H         6.94845651500448   -2.25419975499939   -5.09562296144516
H         7.12372303829061   -3.73858863299335   -4.14601832540656
