35
 energy: -44.215258110277 gnorm: 0.093932359798 xtb: 6.4.1 (025e99ea0bd20707e8cccc6e19fe66a0758c6dd1)
C         1.57049023313638    1.20639972476059    0.63467603504816
O         2.69861005894339    1.34390668139130   -0.21920503334333
C         2.86444966294965    0.35845792000945   -1.15304391275175
C         3.84311667898848    0.83255589563807   -2.02775029374929
C         4.12385305114738    0.18570911387738   -3.23533846475287
C         3.38491625878307   -0.98721344035108   -3.44296464067919
C         2.61576276888834   -1.57999623447529   -2.43279177768912
C         2.31769785011521   -0.91987475726110   -1.22893489567729
C         3.50642620757496   -1.67056544644719   -4.78940910599094
C         4.88830349457986   -2.36870004124092   -4.89687738104563
C         5.27321822102570   -2.81072458003134   -3.47522067226755
C         6.56965231242063   -3.61501980413169   -3.48968597297769
C         6.50513818792680   -4.75870630225402   -4.48325373153402
C         5.14718722571755   -4.80999322223540   -5.15346152454482
C         4.83967028421156   -3.52748636430196   -5.90504003132290
H         0.65561459979405    1.42466476921286    0.07414119884060
H         1.72795232739890    1.86321474001348    1.49594923669744
H         1.49479331647508    0.18844538981137    1.03096471506501
H         4.13604940556627    1.85607751781012   -1.81080963873816
H         4.64040769747740    0.74518555043507   -4.01323981815945
H         2.04349542547992   -2.47541534139928   -2.65367908641139
H         1.43314242013758   -1.18813070657229   -0.65894102377467
H         3.40808948828667   -1.02295324417201   -5.67266084965401
H         2.77902638309075   -2.48735991463664   -4.89138442017322
H         5.67627472276167   -1.66814263528690   -5.22093892734610
H         4.41201047607041   -3.23876978769877   -2.95062428360691
H         5.50576967480824   -1.89788689816798   -2.90716877728185
H         6.73153654481337   -3.95600040959467   -2.45910405087840
H         7.39130177523964   -2.93926471958242   -3.76079825393734
H         6.73426783337861   -5.69127516919893   -3.95173110706488
H         7.26873815389193   -4.62479095705225   -5.25783719168176
H         4.30972192934090   -4.98246798294680   -4.46878997530933
H         5.15321518148314   -5.67283868543642   -5.83203563870142
H         3.93187336297267   -3.71298981555966   -6.48795386503462
H         5.67284418060115   -3.40167181163462   -6.61247054110594
