35
 energy: -44.218035404467 gnorm: 0.100539219414 xtb: 6.4.1 (025e99ea0bd20707e8cccc6e19fe66a0758c6dd1)
C         0.61231015520114    1.23259999597949   -0.19075629365789
O         1.97086743487060    0.85067158072486   -0.02008648197991
C         2.67902812516382    0.39462027331499   -1.09767300919999
C         2.16500520284849    0.35931328618238   -2.39467073740270
C         2.95567337075133   -0.16013987254940   -3.42447902970325
C         4.20867588934810   -0.70356800609638   -3.10895710122864
C         4.75743658317733   -0.58662529440971   -1.82496962194641
C         3.95334238671765   -0.07613711960726   -0.79215366644417
C         4.78272036096197   -1.48292967460548   -4.27416766550753
C         5.89034184675693   -2.52153230747564   -3.95322314848932
C         5.33311079521104   -3.67979247072533   -3.10907873991669
C         5.07720633213193   -4.99455150000147   -3.83966959947741
C         4.44251785263907   -4.69994290811233   -5.18493317228563
C         5.39486078197715   -3.85790047190219   -6.00946160068173
C         6.47038533679966   -3.09826320696074   -5.25417429240963
H         0.06119736069300    0.51449815238556   -0.80674394448422
H         0.62073475302806    2.12199042667509   -0.82864773503854
H         0.16743452357284    1.36187724425185    0.80140238066059
H         1.28891755595573    0.95960545784039   -2.62399382169183
H         2.57001429826772   -0.08754637578783   -4.43984614117050
H         5.80442501164282   -0.78188371762599   -1.61581449548698
H         4.43320415426629   -0.04430467577725    0.18150539212390
H         5.20315146894102   -0.75723826504129   -4.98537437707207
H         3.97089578447207   -1.98046578271618   -4.82194622039475
H         6.61340438938343   -2.01518256823934   -3.29179611492318
H         4.34847983692697   -3.29599276962997   -2.82045698442097
H         5.99959918992727   -3.75887215359220   -2.23754251591723
H         4.48443463306089   -5.71392920926462   -3.26028130197793
H         6.07914127877264   -5.43000204393804   -3.94813078698700
H         3.49465343418363   -4.20476602751184   -4.93784151472540
H         4.22336309242222   -5.61854906184188   -5.74092929604084
H         4.86213792921266   -3.23923034626839   -6.73975225044443
H         5.95955575835539   -4.64944248137201   -6.51895378851759
H         6.69360137578484   -2.28228459674380   -5.94890361242437
H         7.31702757112552   -3.78029345042130   -5.08536184694771
