35
 energy: -44.217428723476 gnorm: 0.090014555730 xtb: 6.4.1 (025e99ea0bd20707e8cccc6e19fe66a0758c6dd1)
C         1.08783669530369    1.21941390510221    0.58013801293809
O         2.28549849539158    1.57683497072069   -0.09701172070341
C         2.82982178586977    0.77121864196149   -1.05896885993083
C         2.39479276496676   -0.49650649439126   -1.44793151249424
C         3.00644459856253   -1.20888682676478   -2.48421772988436
C         4.06296732884368   -0.64635374449578   -3.21373795083595
C         4.45649802056940    0.65241888010433   -2.86479526972859
C         3.86659335184395    1.34221648160928   -1.79238388251554
C         4.79511446749058   -1.41165624356976   -4.29675224301206
C         5.20112847134429   -2.83345065708158   -3.82539310128939
C         4.02657497722694   -3.80294428355301   -4.03789964422558
C         4.51047539330265   -5.21744998452704   -4.34262150787696
C         5.38341068878375   -5.19871435872699   -5.58237580429690
C         6.03587316852208   -3.86967337592799   -5.90452860797519
C         6.46500556375221   -3.30051069381325   -4.56431967276023
H         0.94883395734114    1.96132977480892    1.37328077217214
H         1.16780534890544    0.25443553329824    1.09044532561892
H         0.21047919316841    1.27248139140514   -0.07288068527979
H         1.61375375313987   -1.09461950171990   -0.98672850819068
H         2.47983343609879   -2.14212958169116   -2.67582079601097
H         5.29727898293555    1.18697018209880   -3.29537483663938
H         4.25421523647607    2.30978195577997   -1.48765629573923
H         5.68007257335343   -0.86664954681929   -4.65594880070664
H         4.23018355868610   -1.41890629111738   -5.23880487871421
H         5.50320967401048   -2.72371690103722   -2.77021507366451
H         3.55111564633751   -3.44554684046747   -4.95784983026028
H         3.53249042825004   -3.78522695713045   -3.05524898258037
H         3.74026620707525   -5.98493183157573   -4.49202967142841
H         4.98859541321624   -5.54181864117920   -3.40911153784188
H         4.86805222187376   -5.50421313900511   -6.50203744447509
H         6.21080811122255   -5.90916925658386   -5.47437067372269
H         5.30102652915688   -3.24598225660092   -6.42499051839239
H         6.91705225073539   -3.85992786983275   -6.55907418174154
H         7.26914066497519   -2.55929671115941   -4.61190002506836
H         6.97452660218807   -4.11099459346456   -4.02212954978136
