35
 energy: -44.220667722408 gnorm: 0.093423877680 xtb: 6.4.1 (025e99ea0bd20707e8cccc6e19fe66a0758c6dd1)
C         0.93453106964792    0.78234660163655    0.40685880057758
O         2.30430199025891    0.44749614746845    0.22719755567416
C         2.85607681170673    0.29976646336097   -1.01553634021227
C         2.19799579619918    0.23280684631259   -2.24440370645565
C         2.94608878161926   -0.12197209191031   -3.37133831653848
C         4.32930741235744   -0.34456223010422   -3.41654186634360
C         4.94979405608681   -0.25338078134102   -2.16349756940112
C         4.24316874996702    0.17879439901360   -1.02869374568964
C         4.97249110961314   -0.94335278187900   -4.65040244279304
C         5.25543643399551   -2.45108084230034   -4.41540411622760
C         3.92917248691652   -3.21881153434400   -4.54294378772259
C         4.05149172063999   -4.59791293561711   -3.90188315208162
C         5.49425497083272   -5.04710503775198   -4.02844709090369
C         6.07241695355527   -4.58393334011580   -5.35020363094024
C         6.21754880618296   -3.07546990674035   -5.43815576755675
H         0.23597720609567   -0.04823271451798    0.26195590516490
H         0.60503924162272    1.61453469188451   -0.22313319529953
H         0.88840139944238    1.08590266540610    1.45792090029914
H         1.11748565445358    0.25251586545213   -2.35655851235876
H         2.38574335074509   -0.21223784503900   -4.30022915614483
H         6.03203260012093   -0.31104509865618   -2.22258264107583
H         4.73122424178024    0.18590878728614   -0.05861962525455
H         5.81758333973054   -0.31652170985436   -4.96994469383953
H         4.27063990705934   -0.80048471241439   -5.48326273966394
H         5.61581407632938   -2.55069046045865   -3.37766566190008
H         3.78573780143608   -3.29736952920932   -5.62616028786565
H         3.22360162127690   -2.61997823722875   -3.94829750206524
H         3.54140507551106   -5.37357765725681   -4.48731395992639
H         3.77917865633829   -4.55308281078202   -2.83929645044474
H         5.75526309742282   -6.10289073977775   -3.88048528451815
H         6.09279266071779   -4.61520938760928   -3.21837515191177
H         5.49982978150532   -5.03175787983797   -6.16963508521104
H         7.08176827497836   -5.01495342627416   -5.37101358027965
H         5.92233291589772   -2.65232767106098   -6.40360568712266
H         7.29908575749715   -2.90278087531552   -5.33364601233079
