35
 energy: -44.216288765509 gnorm: 0.099134234951 xtb: 6.4.1 (025e99ea0bd20707e8cccc6e19fe66a0758c6dd1)
C         1.68629395989512    1.21955252005179    0.70075160550542
O         1.33947333479726    0.49075585273982   -0.46939635560934
C         2.29847200235147    0.21310572113723   -1.40422202954583
C         1.98349969475631   -0.78199130984523   -2.33063641704441
C         2.84187748207728   -1.12409382820585   -3.38022981608262
C         4.11098973163775   -0.54281510022452   -3.50810744421946
C         4.49079942907575    0.36213721539137   -2.50798561383223
C         3.60238990299615    0.69683171888607   -1.47232999322408
C         5.16867427410725   -1.21364686067950   -4.36012593374556
C         5.87066186560951   -2.46894406118247   -3.77705772629813
C         4.98316893159959   -3.47101280239414   -3.02017770929219
C         4.72099991780765   -4.75113848765684   -3.80782422901766
C         4.50930937238371   -4.62310519303605   -5.30386980149738
C         5.57284170292849   -3.83497310651026   -6.04115295226156
C         6.46541005701594   -3.22367564334550   -4.97630652974676
H         2.51536749867181    0.81415817587621    1.28992801993539
H         0.76894225278514    1.04495787893379    1.27169325003511
H         1.81259372878888    2.28666334995397    0.49020799084601
H         1.02662732914037   -1.27328707028089   -2.17736185216585
H         2.57767896933878   -1.94228829931271   -4.04786000348974
H         5.48986697405112    0.74980846028339   -2.33584745087982
H         3.91761290099303    1.52960040074500   -0.85070038311695
H         5.87308638257929   -0.39599831628383   -4.57098078938692
H         4.70870924438589   -1.61319504173148   -5.27415881153773
H         6.70464984499740   -2.14018806927856   -3.13434568402037
H         4.01220789207714   -3.02895837231475   -2.77132958192478
H         5.46266505319811   -3.61458164844408   -2.04063331446179
H         3.89801929642110   -5.22077950044947   -3.25400693855964
H         5.60121248390869   -5.40156591363033   -3.72165785298428
H         3.52298096494818   -4.18800565461387   -5.51013674015931
H         4.45686140025551   -5.65516045280742   -5.66871074658562
H         5.23436440184526   -3.09034310308236   -6.76973381209228
H         6.17013412425974   -4.48830303951729   -6.69030872649904
H         7.21503791797456   -2.53862580222675   -5.38503640045048
H         7.00503711951978   -4.07043964782834   -4.52657402596522
