35
 energy: -44.222286462964 gnorm: 0.102419067395 xtb: 6.4.1 (025e99ea0bd20707e8cccc6e19fe66a0758c6dd1)
C         1.39459735266439    1.57165261311655    0.62676755523007
O         2.69162426114038    1.06610030503519    0.33899431199695
C         3.01447417360282    0.46740737161406   -0.84759820152281
C         2.04908634458790    0.01338097926169   -1.74735129820952
C         2.53002750291127   -0.58867062240281   -2.91427988584507
C         3.89319596392453   -0.63468257857685   -3.23760353118191
C         4.81051875237567   -0.14468424520698   -2.29853042977403
C         4.37837075801650    0.49798999257107   -1.12631356044372
C         4.31471120735890   -1.27057040900869   -4.54627419040610
C         4.95332738937800   -2.65629521603142   -4.26261539620847
C         3.95997827752630   -3.81419745141928   -4.06981293846894
C         4.21766221893190   -4.93627473409979   -5.07100371089700
C         5.66639864428885   -5.35712590722254   -4.91801734280489
C         6.66667691530640   -4.29553868451490   -5.32828018318573
C         6.02456462839408   -2.92006216006481   -5.33239137311562
H         1.47320446427254    2.32889474579962    1.41368663036447
H         0.70394712717622    0.83534503737344    1.04966851172584
H         1.02499347985400    2.17407714195679   -0.20958370600603
H         1.00558921519620   -0.13200215660327   -1.48193310426294
H         1.80115098443240   -0.92503611351073   -3.64951480629677
H         5.88314940920981   -0.19536704420724   -2.45648999574350
H         5.01948885654019    1.08883302082001   -0.47888427224925
H         5.03525760284253   -0.60108199173508   -5.03800935701303
H         3.49845049241101   -1.42694837107414   -5.26455480731740
H         5.43907905751646   -2.61828150344854   -3.27302179363382
H         2.92993245227249   -3.44483486059864   -4.12157899219384
H         4.08838658186397   -4.26372439177786   -3.07408576534981
H         3.98913395709814   -4.42519909702415   -6.01501107486612
H         3.49936686896676   -5.74619345811910   -4.88841648959752
H         5.82148031217352   -6.26392971309561   -5.51664737900082
H         5.78459471734262   -5.81613106605783   -3.92991728881100
H         7.12787648399049   -4.41897492401941   -6.31414490439573
H         7.41633654772095   -4.19305754112034   -4.53297551892784
H         5.49536332300829   -2.74472813983765   -6.27446317588643
H         6.82502482085546   -2.17637181237868   -5.20334054141319
