35
 energy: -44.220001200882 gnorm: 0.104603827468 xtb: 6.4.1 (025e99ea0bd20707e8cccc6e19fe66a0758c6dd1)
C         1.04750000212529    0.67953518381298    0.53356271447904
O         2.45961510938219    0.71618396010069    0.37461878074579
C         2.87085722254883    0.42544447531812   -0.89700126649631
C         2.22594687018476    0.35512560978262   -2.13264487657610
C         2.85856961679953   -0.15464925958130   -3.27080606060554
C         4.24025522284708   -0.36420185352298   -3.37996705051421
C         4.88376245185101   -0.34216989496640   -2.13543870848491
C         4.22845817706902    0.12891028053208   -0.98542383022354
C         4.84729981350154   -0.89507011799354   -4.66227866249066
C         5.20581423150953   -2.39786047287275   -4.51525915028200
C         3.97584487164346   -3.27534989376314   -4.22918132028750
C         4.28193694218488   -4.73072772421564   -3.88855774559350
C         5.72635973551846   -5.05244386189099   -4.21946451600691
C         5.95462537236413   -4.54806743573335   -5.62990376313895
C         5.95130107828348   -3.03171910422649   -5.70017073268199
H         0.77510049983695    0.84899981520509    1.58042307141990
H         0.66813304562225   -0.27209475708557    0.14824080937812
H         0.76127147710957    1.47189025382285   -0.16590311538824
H         1.15353184029503    0.51179201041303   -2.20913649235525
H         2.26585480623022   -0.15186842397812   -4.18385289827642
H         5.93889962213135   -0.59628527808027   -2.12249966540347
H         4.73842392945249    0.11332064601354   -0.02678704719422
H         5.85072005805310   -0.46448559063873   -4.79247122252085
H         4.23198177146112   -0.67493419572280   -5.54522064590481
H         5.92307878621047   -2.52545030749613   -3.68703960549551
H         3.37868990872380   -3.12131649147030   -5.13459973945734
H         3.34318351672908   -2.85921435184290   -3.43130502229585
H         3.67220980539638   -5.32044352027789   -4.58500693617235
H         4.04488769483698   -5.02596053161765   -2.85807247830701
H         5.89698386695011   -6.13514229733522   -4.16156036803023
H         6.35269103194889   -4.63444866501107   -3.42323158079291
H         5.21451074791448   -5.07460226727664   -6.24216368306786
H         6.88558463384528   -4.97396248110166   -6.02604732475108
H         5.47929870846485   -2.72336665629654   -6.63848190246756
H         6.93880812476622   -2.55312687460080   -5.77919781909347
