35
 energy: -44.227087920251 gnorm: 0.084447896810 xtb: 6.4.1 (025e99ea0bd20707e8cccc6e19fe66a0758c6dd1)
C         0.88414362676330    1.01988713123333    0.47195693508046
O         2.25476332304708    1.10668665637919    0.10515608137115
C         2.75358194166185    0.70335161623308   -1.10280414667295
C         1.98118695764875    0.31907415170156   -2.19980281113962
C         2.58465284339315   -0.45936326534672   -3.19245429350544
C         3.97245228048504   -0.65021853728996   -3.24215861476664
C         4.73015235731505   -0.17918429637751   -2.16167025465893
C         4.13276790264155    0.51202583499330   -1.09432081689537
C         4.64329866008067   -1.29438595113021   -4.43784285699285
C         5.50805207703677   -2.53612712912184   -4.09315959401750
C         4.55068531255072   -3.61135878354044   -3.55280914544361
C         5.24343565881020   -4.96024215751917   -3.72148638164430
C         5.48105014487986   -5.34046003842679   -5.17004825116480
C         5.49506235655578   -4.10480658883614   -6.04686286172356
C         6.27376073924873   -3.01157855214319   -5.33781980916021
H         0.45792417502121    0.09459680424189    0.07069499460665
H         0.29358965096154    1.85778365249362    0.08833313403516
H         0.75372732074659    1.05653670731601    1.55853604550246
H         0.90755482152406    0.44755384207159   -2.30599289313786
H         2.04389880565264   -0.93718360563580   -4.00746711631419
H         5.79323024424694   -0.39797402826414   -2.15439326312182
H         4.60730058063153    0.84507058746644   -0.17606566864727
H         5.38025697575169   -0.59767914532896   -4.86292802138478
H         3.96943113392788   -1.57268565509417   -5.25949637089716
H         6.20029616732892   -2.17685665567004   -3.31314801103764
H         3.64238440674001   -3.69046906088841   -4.16012609791980
H         4.32073171920320   -3.33627418766113   -2.51286415747365
H         4.61797289463502   -5.73602619255342   -3.26156373750627
H         6.18298948514373   -4.83334980817462   -3.16795988446766
H         4.67961639190570   -6.01362664184342   -5.50058123074644
H         6.45618946341463   -5.83210576789560   -5.26162090625398
H         4.49588541607247   -3.76901040742501   -6.34478426439386
H         6.01545513546478   -4.38064189765867   -6.97320388762468
H         6.38240552498174   -2.26344261707569   -6.12951688084817
H         7.32529892227925   -3.31539395536954   -5.22633161236667
