35
 energy: -44.222140188375 gnorm: 0.097553157371 xtb: 6.4.1 (025e99ea0bd20707e8cccc6e19fe66a0758c6dd1)
C         1.09049306722929    1.44188134530749    0.40399820396622
O         2.47775007535868    1.16109697081526    0.27226548299723
C         2.93225670829827    0.49238239857342   -0.83087169168969
C         1.99527721141469    0.08653363242660   -1.78219995542192
C         2.50281685472988   -0.44893614053218   -2.97012608257437
C         3.85810544073030   -0.64361837702751   -3.27041794147781
C         4.72631740458309   -0.15468671665436   -2.28523188745116
C         4.29734794735902    0.47501301924318   -1.10483454167705
C         4.23669278028182   -1.36712733178569   -4.54629165491083
C         5.08763534948811   -2.60499123794357   -4.15627131640197
C         4.24702011786676   -3.87305666839514   -3.93259984198314
C         5.16459477842933   -5.09199221473507   -3.94230973890796
C         5.79702115517313   -5.28240658264947   -5.30727751008330
C         5.81282410943369   -4.01433155530717   -6.13647932055443
C         6.23050878085525   -2.97081308676514   -5.11624920855670
H         1.03480401238404    2.19182640047512    1.19981068334976
H         0.54297184910467    0.53317853634466    0.67320355836286
H         0.70601593315112    1.97396005780201   -0.47240087488548
H         0.92345374650382    0.07768405900993   -1.60447692124527
H         1.75360051848626   -0.86182746891577   -3.64330417359586
H         5.79367064891820   -0.17794602145123   -2.48086560208046
H         5.03582121219732    0.96596017377528   -0.47800066443551
H         4.79203895940844   -0.75871781810101   -5.27473780946197
H         3.36219293833597   -1.65825234865403   -5.14391939482931
H         5.59724246560508   -2.34626739133099   -3.21284257993055
H         3.51050430756604   -3.90068363864880   -4.74308368690466
H         3.66040757775418   -3.89942062886147   -3.00242435647488
H         4.65351757593289   -5.98502245481731   -3.56037982460874
H         5.89741913121169   -4.86409988207598   -3.15726948765448
H         5.35029805107872   -6.14875421417346   -5.81183834513373
H         6.79049311902792   -5.63972334642279   -5.01344770827987
H         4.84311670229784   -3.75224311714187   -6.57334084404548
H         6.59056854725393   -4.03531693983957   -6.91086595603282
H         6.48809827079058   -1.97980945627090   -5.50336002047010
H         7.07478870250633   -3.41407319806030   -4.56745247381664
