35
 energy: -44.219265649210 gnorm: 0.098311172691 xtb: 6.4.1 (025e99ea0bd20707e8cccc6e19fe66a0758c6dd1)
C         1.98300376570983    2.18449538087635    0.44467747317732
O         3.20883169294479    1.82630652320825   -0.17959971970242
C         3.25943256539101    0.79851719212625   -1.08057459251859
C         2.17450981216610   -0.05481487428036   -1.28657521393562
C         2.22202697389426   -1.02759431525191   -2.29003678636610
C         3.35441467803543   -1.19197769790116   -3.09970320662776
C         4.40516906138437   -0.29577878827418   -2.86267898539219
C         4.42577932994898    0.65355674392331   -1.82720242338680
C         3.31284982550923   -2.22372852526114   -4.20803975720732
C         4.02357543543655   -3.57387320784148   -3.92430642167275
C         3.99932429019302   -4.41876125099531   -5.20891877866399
C         5.32788348611725   -5.10112632731426   -5.52060735252746
C         6.54196383686530   -4.19953667371376   -5.63242311882154
C         6.47393515372385   -3.12507721949239   -4.56623897583823
C         5.48761231668182   -3.47713081457674   -3.46738216832272
H         2.10100720948831    3.19249302477371    0.85559388123301
H         1.79327992422702    1.52234385204971    1.29529608248654
H         1.25268740835685    2.08335845946399   -0.36489964581844
H         1.20433582012320    0.18717225151787   -0.86151758454728
H         1.31054076662159   -1.60581423466763   -2.43084772717339
H         5.29074573038673   -0.39709708642964   -3.48198913168636
H         5.29324666470196    1.29777609538950   -1.71869238324931
H         3.72180800238585   -1.64171641068531   -5.04662215191640
H         2.25547447767927   -2.41646981428192   -4.43491161407927
H         3.41254731798159   -4.11594488201068   -3.18302499249518
H         3.74684456425584   -3.78825402548316   -6.06846370290679
H         3.23584981073540   -5.20271736763025   -5.09686837799218
H         5.28214165879320   -5.55057292119733   -6.52084673374171
H         5.73900815990582   -5.78395268117563   -4.76563760842658
H         6.38677022743798   -3.70721000120984   -6.60104625351823
H         7.47173209674333   -4.77944850100732   -5.61722380947030
H         6.30571984938488   -2.16644101847717   -5.06882333679319
H         7.38241892619940   -3.02196357513611   -3.95876365218138
H         5.49434869817918   -2.69650551947561   -2.70000084898297
H         5.76124301362933   -4.45633753882021   -3.04696998823364
