35
 energy: -44.215755629997 gnorm: 0.110541127507 xtb: 6.4.1 (025e99ea0bd20707e8cccc6e19fe66a0758c6dd1)
C         0.69351621170268    1.52006074853658   -0.04884056123600
O         2.10230834519419    1.33800558259571   -0.10209486031356
C         2.66303878342368    0.48455664951003   -1.01197033062629
C         2.02612852401830   -0.18850739747575   -2.05552165145122
C         2.81101134106757   -0.82744584948940   -3.02051359981528
C         4.21166914973263   -0.81245794798766   -3.07358516075316
C         4.83474648683600   -0.16725466426357   -1.99705131861943
C         4.05305740808387    0.40867891418130   -0.98160208144473
C         5.00575449223655   -1.38827199869496   -4.22793085200836
C         5.71438172280179   -2.70956098273399   -3.82722016860246
C         4.70133661095234   -3.78782522145199   -3.40800820596505
C         4.86201021385442   -5.13109483510048   -4.11345284857817
C         4.69297384414644   -4.81888985458096   -5.58766875076841
C         5.69015245439816   -3.78498110732881   -6.06985872571907
C         6.57983142002739   -3.14280649368358   -5.02088595798183
H         0.21602756124447    0.54114638178162    0.06326478246465
H         0.32509911212233    2.07038586953695   -0.92027782403483
H         0.57365569115071    2.15171341755254    0.83753076739494
H         0.94748801080109   -0.27642082096398   -2.15182948167130
H         2.30399043395818   -1.47475721614504   -3.73387949734589
H         5.89402499276803   -0.03041704933771   -1.80402020672162
H         4.44986277865790    1.16081335998882   -0.30622672899414
H         5.77387763700838   -0.66251657249378   -4.53202166079933
H         4.20409679764722   -1.64556864829563   -4.93348457353371
H         6.33713744574960   -2.47008952246578   -2.94885580578313
H         3.63296749154776   -3.55420111294038   -3.47211788612838
H         4.97957902991370   -4.04653617258526   -2.37568772857980
H         4.07392467709116   -5.85248110899831   -3.86226286753370
H         5.85862287783670   -5.56657313284135   -3.96386510528691
H         3.68543966066881   -4.45389464265629   -5.82506030737512
H         4.79038766991847   -5.82404355043379   -6.01331456489916
H         5.27292935374265   -2.86959814951971   -6.50329813559031
H         6.37900495872777   -4.16792200214477   -6.83395293272386
H         7.21590313391710   -2.35652167275903   -5.43977052003745
H         7.30512025238967   -3.88967709484406   -4.66506804677772
