35
 energy: -44.223078705677 gnorm: 0.092894350420 xtb: 6.4.1 (025e99ea0bd20707e8cccc6e19fe66a0758c6dd1)
C         2.49950242210378    1.21448952575291    1.17124326664743
O         1.88284295813422    0.79524027800334   -0.03897842379079
C         2.53966737477237    0.35284127843506   -1.15411602507520
C         1.84134637409610   -0.40862188857879   -2.09230090891429
C         2.54999229365985   -0.81118045966661   -3.22863730302331
C         3.88844968746606   -0.51884685948310   -3.52521173203273
C         4.50289468992713    0.37882106553577   -2.64198617792654
C         3.83740379260701    0.75242858038415   -1.46240416512677
C         4.47203422899747   -1.08255843556559   -4.80439336787018
C         5.12149019100153   -2.46121540114259   -4.51107083804609
C         4.06325254535512   -3.36895850609540   -3.86238880413943
C         4.30219047486868   -4.84146418914121   -4.18250922889647
C         5.73651969851943   -5.28886842279955   -4.38717212142543
C         6.58266277562062   -4.26012866863294   -5.10937435215414
C         5.70574721955682   -3.18886896358741   -5.73201591534145
H         1.62883130068663    1.39851293470074    1.80913317854860
H         3.15873561712920    2.07961382439175    1.04891853944675
H         3.12481973802097    0.41575563816520    1.58356376969642
H         0.79297952149481   -0.62421922747950   -1.90544787856507
H         1.94916021899563   -1.50001418213536   -3.81980735611389
H         5.46930942497351    0.83318018063539   -2.83603988073238
H         4.51150026105419    1.26255364855493   -0.78074520042371
H         5.21580888701050   -0.42640284136656   -5.27922429711724
H         3.64553002639397   -1.22439527166657   -5.51392545716397
H         5.90738436231206   -2.19906663267905   -3.78282390207849
H         3.07364631062454   -3.16646441557217   -4.28639174730916
H         4.04689826357927   -3.17938908763529   -2.77895364641023
H         3.71593923431881   -5.12238785767534   -5.06679693778087
H         3.90760166172118   -5.49398370046222   -3.39271647188686
H         5.66465177901296   -6.26250358505867   -4.88874062095671
H         6.14542341899333   -5.44568080028339   -3.38257997004260
H         7.08682360181311   -4.85197775715825   -5.88100076084906
H         7.42067565230713   -3.88012260127845   -4.51076657939957
H         4.97652893243514   -3.60441132966327   -6.43476804245012
H         6.34649099907593   -2.49796586009534   -6.29996510381907
