35
 energy: -44.226938857743 gnorm: 0.099859513999 xtb: 6.4.1 (025e99ea0bd20707e8cccc6e19fe66a0758c6dd1)
C         0.71571938252257    0.88746712427273    0.11792313291706
O         2.13439378539326    0.85113722375806    0.03595695033167
C         2.75437190790699    0.36230872307921   -1.08088722256235
C         2.16167301045847    0.01821282733469   -2.29660729050089
C         2.98363507907848   -0.48143809446880   -3.31160490954648
C         4.37764019893562   -0.57264785716913   -3.19621843020380
C         4.93755158519170   -0.15194692514538   -1.98256784948186
C         4.13020548065180    0.24318096961520   -0.90278052003149
C         5.31529724016214   -1.05098718407769   -4.28554762790054
C         5.67908345902365   -2.52848885595875   -3.98030250857226
C         4.59545448993534   -3.44092482811180   -3.38208708898995
C         4.61209026364209   -4.89484415345189   -3.84434594435962
C         4.80647035374703   -5.04246827093515   -5.34093582421939
C         5.26803966735119   -3.79589665579096   -6.06815836765910
C         6.34193226097127   -3.12229773451201   -5.23312546106177
H         0.43346475974385   -0.04060028259925    0.62572188584956
H         0.18711785595116    0.94875843132079   -0.83853679900484
H         0.43837869331144    1.74983136263833    0.73307826073876
H         1.10424121231208    0.14262610744684   -2.51300659159199
H         2.56629059200546   -0.73783238693280   -4.28374618286255
H         5.99669657780707   -0.08298779258282   -1.75560304428891
H         4.58263339630537    0.43393025587526    0.06583513051630
H         6.26656927394634   -0.50345029761989   -4.35255658399671
H         4.68681726294341   -0.99178885140051   -5.18453102853750
H         6.44119314159293   -2.50772099751079   -3.18314960385603
H         3.61248910889406   -3.15621372364346   -3.77301099259249
H         4.56378939620395   -3.32884050347186   -2.28825429023233
H         3.74760262149027   -5.45477381712383   -3.46525062197527
H         5.49086284056117   -5.36095119306912   -3.37984876658188
H         3.90521511736213   -5.43907910014609   -5.82584843009956
H         5.61931519830336   -5.76277247014105   -5.48736971451722
H         4.47822624068119   -3.07141820330355   -6.29442484641493
H         5.70805239509811   -4.13218355991145   -7.01594598956007
H         6.87689226138017   -2.32490864871068   -5.75875248299088
H         6.96591292057968   -3.97655030026078   -4.93085627312576
