35
 energy: -44.217749420556 gnorm: 0.100426581143 xtb: 6.4.1 (025e99ea0bd20707e8cccc6e19fe66a0758c6dd1)
C         0.70879896978918    1.05194253956494    0.14504773142249
O         2.11789573145723    0.86534947634077    0.12759145516313
C         2.66178510994860    0.32542430076389   -1.00525108404088
C         2.09276646488124    0.25909090550687   -2.27784171218381
C         2.72778416617700   -0.38653256355815   -3.34340057615806
C         4.09723060701378   -0.68506621864076   -3.32396837110254
C         4.69371317693925   -0.46651248267641   -2.07501659166114
C         4.02125989791420    0.03023582814046   -0.94589208767666
C         4.85451025810933   -1.17717848248266   -4.54010995535733
C         5.81917607781113   -2.36220750023598   -4.26872047900547
C         5.11681961944271   -3.29596935063320   -3.26900199599864
C         5.44202488405721   -4.76511569872617   -3.52137463393823
C         4.96213264540773   -5.12544503891150   -4.91393485690454
C         5.18868685562918   -4.11725404313115   -6.02211523682926
C         6.20381187630449   -3.08303498293730   -5.57026029743715
H         0.10624000897509    0.17251016691105   -0.10466761519196
H         0.26267995807867    1.90835754861049   -0.37024146673893
H         0.48337247435350    1.21476927582003    1.20413985170104
H         1.13694026662592    0.76817441511752   -2.36558901404919
H         2.08372606289779   -0.49314657920526   -4.21448938291010
H         5.76507332876916   -0.58710257927676   -1.94970918597041
H         4.63226974757330    0.20510031098887   -0.06533433453344
H         5.39903973276632   -0.32947378939799   -4.98066610842427
H         4.11269840318424   -1.58914872262248   -5.23771898826495
H         6.71938193183331   -1.89263303348157   -3.83764686522953
H         4.04678270606144   -3.14035539378929   -3.44480914171681
H         5.32521028383557   -3.05298492033130   -2.21659159003550
H         4.87061582380981   -5.42154985500369   -2.85267495531562
H         6.51299786316453   -4.95753114800595   -3.37560833006150
H         3.91906968783837   -5.46624834211633   -4.88997319852925
H         5.62671472324068   -5.95838682933522   -5.16993563922153
H         4.16759052078024   -3.77631893160015   -6.22459071592313
H         5.51584829741109   -4.54594585126922   -6.97824816780548
H         6.20136832288542   -2.36854958882362   -6.39959736401261
H         7.11635976551909   -3.66214453764212   -5.36445834834523
