35
 energy: -44.221560252714 gnorm: 0.093016893683 xtb: 6.4.1 (025e99ea0bd20707e8cccc6e19fe66a0758c6dd1)
C         0.71213598143897    1.19315885427344    0.04371050960992
O         2.10120499856769    0.89643832926455    0.09956364764553
C         2.71109784073251    0.41932094413713   -1.02784789826897
C         2.03936545653973    0.01696671327934   -2.18307770956788
C         2.78106696025465   -0.56373911638039   -3.21659231739597
C         4.18244906788021   -0.59523649396247   -3.22101955176942
C         4.82733340305847   -0.27486220544447   -2.01897036556916
C         4.09006584440530    0.24614821979630   -0.94246717815976
C         5.01273242653747   -1.08002256200905   -4.39160031088644
C         5.68087863238599   -2.46933728892756   -4.21296268902332
C         4.79199034366344   -3.41988612991492   -3.39382451945985
C         5.37239877375963   -4.81218583477217   -3.62288562960602
C         5.17977442922494   -5.30097823701271   -5.04532565240078
C         5.13686055343169   -4.12017213724164   -5.99384818934597
C         6.10450295206425   -3.02574120972510   -5.58135589564563
H         0.12780665145873    0.35226842949086   -0.34397348903750
H         0.44794731280146    2.02129105238458   -0.62141595186993
H         0.42622711119143    1.40183178199365    1.07991391475006
H         0.96624513824386    0.02096152571788   -2.01317731157350
H         2.22041637168826   -0.87607774994264   -4.09584688168417
H         5.87715606058922   -0.54835477609540   -1.98534471156715
H         4.50390023412074    0.53067863557889    0.02038074097399
H         5.77807381312453   -0.30398381939546   -4.53727719143671
H         4.38215177098379   -1.14633109857461   -5.28861417858892
H         6.49617870616098   -2.28978849677836   -3.49203048645833
H         3.75144153336014   -3.55231655904612   -3.70977262189835
H         4.87847493762326   -3.14658827174379   -2.33181488611197
H         5.04222360690766   -5.58142326409300   -2.91307473065644
H         6.43273349247376   -4.63930347532732   -3.39692851501212
H         4.15718676948839   -5.69643547537195   -5.09660369318239
H         5.87899756222737   -6.02277349751148   -5.48247136758512
H         4.12060092453134   -3.72348695188197   -5.89521743092400
H         5.30386323154866   -4.38670924698456   -7.04554659283745
H         6.01382959549222   -2.24038263840206   -6.33851213856133
H         7.16874307089498   -3.30323386207914   -5.61062642805442
