35
 energy: -44.211096294633 gnorm: 0.105868536992 xtb: 6.4.1 (025e99ea0bd20707e8cccc6e19fe66a0758c6dd1)
C         1.56819572892511    1.10918618319189    0.94090442407596
O         2.63328505395734    1.40025034157937    0.04561578153707
C         2.89077539526216    0.69676030325799   -1.09870390954743
C         1.94926318963467    0.00471389968327   -1.86178698419740
C         2.45238271568783   -0.62452688396441   -3.00477412907422
C         3.78556881783623   -0.63589033216024   -3.43763577132234
C         4.61246800577243    0.27253245108426   -2.76351151872390
C         4.19552326193309    0.85934510588246   -1.55699487002445
C         4.10504287786271   -1.52618907204255   -4.62083135230054
C         4.80298511121261   -2.76275087863112   -3.99447864359310
C         3.96645261690643   -4.02682860575514   -4.25327146299696
C         4.91371831685867   -5.21966553804241   -4.16569775708073
C         5.85641107818045   -5.21515808208298   -5.35341313157642
C         6.37421350426652   -3.82829805065128   -5.67642946420260
C         6.26239405491838   -2.97245762853105   -4.42771238529576
H         1.71326158638168    1.61937327346501    1.89876734900749
H         1.54662435646235    0.03208085194305    1.13421914122052
H         0.56044573518040    1.34669543622823    0.58448463184517
H         0.91841910351106   -0.08179349441050   -1.52960290852943
H         1.67442398383126   -1.18983564952676   -3.51485188197534
H         5.62759380313445    0.50034863552367   -3.07282670305079
H         4.83961770773930    1.55662144545385   -1.02950967576452
H         4.59303769175405   -1.15643535322327   -5.53425817035906
H         3.16827483838098   -1.86803048240650   -5.08156203314079
H         4.79673422905172   -2.61916607395041   -2.90084271025492
H         3.55888099736532   -4.02638506583359   -5.27012348285911
H         3.05697922781625   -4.10904879562629   -3.63997401408352
H         4.35355781994382   -6.16060529015680   -4.09203652534778
H         5.45209200309099   -5.14602702365850   -3.21176600557004
H         5.22568010921730   -5.48990051207629   -6.20863031398478
H         6.76058645806007   -5.83197558087213   -5.40819287435869
H         5.68879296083836   -3.29785215517372   -6.34627767633049
H         7.40291849720009   -3.76600681889535   -6.05443382646491
H         6.69933209948796   -1.99604356803136   -4.66008288471524
H         6.87285897107969   -3.21314084030545   -3.54460981704170
