35
 energy: -44.222708781567 gnorm: 0.098033213177 xtb: 6.4.1 (025e99ea0bd20707e8cccc6e19fe66a0758c6dd1)
C         0.70242727236123    0.94020954933828   -0.15146970798090
O         2.06727600586593    0.63543750898553    0.10343678904701
C         2.65691617385816    0.19157748137801   -1.04807517542205
C         2.06141850762955   -0.11867174957560   -2.27151179481509
C         2.86725415926071   -0.48360223457407   -3.35453878342085
C         4.25006354183989   -0.66041995930080   -3.20805602177584
C         4.85390262431860   -0.24168766336961   -2.01495948226659
C         4.04501305302991    0.16674607490423   -0.94129567822996
C         5.09563224125084   -1.02633434899527   -4.41045676142533
C         5.81771804048154   -2.38759460337486   -4.22582527643856
C         5.21773049334890   -3.32534458816960   -3.16502711599639
C         5.67160715624404   -4.71132397525601   -3.61324416080043
C         4.86029492797836   -5.07049666580063   -4.84292916786017
C         4.64100014671916   -3.93212185983079   -5.81855832419529
C         5.83161946542195   -3.00932961400735   -5.63109933888290
H         0.13621019127580    0.12927715886756   -0.62117518066788
H         0.54604049696966    1.82905701166972   -0.77073149949542
H         0.26907434802355    1.14839222708673    0.83233463583214
H         0.98702364035866    0.02555506921112   -2.34461179141661
H         2.40496096989755   -0.61425774898978   -4.33136385980110
H         5.93447107296753   -0.29050454596203   -1.92526436529972
H         4.41924713940041    0.51435179159777    0.01704230491855
H         5.87552151218105   -0.26477952573793   -4.55541294431608
H         4.48842340928658   -1.12164666088354   -5.32088284782535
H         6.88815193038213   -2.22165444899231   -4.01766578681024
H         4.12456746037116   -3.29594935827392   -3.09996289381649
H         5.59343609307896   -2.96046678249679   -2.19768785065730
H         5.52062664459215   -5.43703074703798   -2.80384441863525
H         6.72674655588393   -4.75457206621423   -3.91335262924033
H         3.99219752048827   -5.58497005324963   -4.41115907694338
H         5.46419303423639   -5.84743056686103   -5.32529682402571
H         3.64590444799438   -3.51075205308019   -5.63938569201941
H         4.64240234012295   -4.25272936664792   -6.86842037165597
H         5.89262256243790   -2.26297559846214   -6.42955386211595
H         6.70838637905308   -3.66794119496435   -5.72041078719564
