35
 energy: -44.220784185613 gnorm: 0.106904076309 xtb: 6.4.1 (025e99ea0bd20707e8cccc6e19fe66a0758c6dd1)
C         1.00511293670679    0.97963269682312    0.36560627767291
O         2.31491364423811    1.37564386402854   -0.01945558669330
C         2.77252969217247    0.81837038076098   -1.18165215930593
C         2.07514140721166   -0.11500959648401   -1.94984524860424
C         2.65879988404626   -0.85131770523758   -2.98555079319434
C         4.02246442339532   -0.66972960668647   -3.25448998253586
C         4.78111538111983    0.26872196015062   -2.54231365429729
C         4.11410142952688    0.96856793167034   -1.52291067245119
C         4.78003277428120   -1.47128950460319   -4.29287297347497
C         5.29964791145181   -2.80496643045391   -3.69301288011536
C         4.26187804276694   -3.92349169693234   -3.50173362552942
C         4.65493974713223   -5.11010525354335   -4.37654341374206
C         5.02545822847958   -4.75630552534358   -5.80374332077689
C         6.22155553626468   -3.82698984819753   -5.84328128607434
C         6.53379747240340   -3.32947678004247   -4.44355042712663
H         0.94291169798075   -0.11295429405552    0.40054950542354
H         0.18208183769661    1.32059758666795   -0.27028251231869
H         0.85080352382583    1.32713293973326    1.39246457116721
H         1.02525011204247   -0.33166399135320   -1.77304462214475
H         2.05075086326859   -1.49142953748228   -3.62234457450694
H         5.84230899727998    0.43790093530962   -2.69496706666611
H         4.64416898413214    1.79442018181950   -1.05784182983271
H         5.59298379875559   -0.82405196408867   -4.65259442205977
H         4.22306214737708   -1.72265335141233   -5.20570515943278
H         5.49515477509310   -2.47110164561713   -2.66005276701958
H         3.25032907128963   -3.52212944978005   -3.62735159014952
H         4.17150043168264   -4.16366023823262   -2.43206698429009
H         3.80940109791796   -5.80391038725672   -4.46749507372216
H         5.49708085908124   -5.67207503668155   -3.95199311967008
H         4.18133906482698   -4.14292642280442   -6.14422871013719
H         5.16736286391525   -5.70058314674508   -6.34151707613051
H         6.00546223708770   -2.91967571150613   -6.41769885109087
H         7.10319828374464   -4.35609512286138   -6.22767058228023
H         7.27506313047413   -2.52477567324555   -4.40781987024073
H         7.05853146585616   -4.05670796281992   -3.80616905756628
