35
 energy: -44.218571717180 gnorm: 0.096935555381 xtb: 6.4.1 (025e99ea0bd20707e8cccc6e19fe66a0758c6dd1)
C         1.06680011787608    1.16416034003155    0.72416545410113
O         2.19548495901258    1.46325301835359   -0.08656845250097
C         2.69943569931311    0.73405612333058   -1.12818864025521
C         1.94980254452035   -0.11660859044453   -1.94187711192834
C         2.64793683093877   -0.75471967453936   -2.97188469470191
C         4.03635501437260   -0.63714304382648   -3.12470556659346
C         4.76323789588883    0.12063678813835   -2.19688620405940
C         4.07228025366544    0.91868535579680   -1.26975596619648
C         4.69988178414183   -1.24730449341405   -4.34211370328230
C         5.31721845315495   -2.64165907303151   -4.05367493210354
C         4.26974246918601   -3.76550009133572   -3.98712970889442
C         4.95774780973554   -5.12659413721774   -4.03086820966491
C         5.49549081902832   -5.35915122423231   -5.42947731426264
C         5.87833787597053   -4.03112948595784   -6.05046527226235
C         6.41937478637732   -3.02063021164713   -5.05526125272263
H         1.14844281860673    0.08218755284369    0.87081371624871
H         0.09975980913093    1.40033323732591    0.26914105826828
H         1.14285005416002    1.68367719224312    1.68506316651564
H         0.91675833296618   -0.39419574496919   -1.75152386417319
H         2.02431615567853   -1.42978704119702   -3.55528371032218
H         5.84503044725667    0.07128261470235   -2.26999938414164
H         4.60573515820062    1.63551036719172   -0.65260091846714
H         5.41917823993111   -0.60618550407963   -4.87200460660674
H         3.90816654461471   -1.42090840122045   -5.08353891276587
H         5.63062326127515   -2.59347428096993   -2.99719451239309
H         3.63293119269965   -3.64923592691664   -4.87090394193100
H         3.71033281630798   -3.61132622043159   -3.05261003257621
H         4.27589447926887   -5.98264715059588   -3.94826887303525
H         5.67127275401707   -5.23659792183946   -3.20380354212563
H         4.74360130431586   -5.87552698187525   -6.03998498921229
H         6.35668193032811   -6.03340040473550   -5.36066105849682
H         4.96363463225024   -3.61003347074118   -6.48158812993555
H         6.62865968706385   -4.28828405259448   -6.80933954837886
H         6.70218819991130   -2.12797492345507   -5.62225193261872
H         7.21900192975022   -3.48180384119146   -4.45661170112971
