35
 energy: -44.225840416064 gnorm: 0.090660251671 xtb: 6.4.1 (025e99ea0bd20707e8cccc6e19fe66a0758c6dd1)
C         1.08825908723363    0.81285942978557    0.37038061975463
O         2.46923239792950    1.03335124332829    0.11548563063266
C         2.97963432105204    0.39628244913906   -0.98192053547349
C         2.26472259690981   -0.52771949868871   -1.74532793215491
C         2.87777897154059   -0.91309342696992   -2.94163125570228
C         4.17531770600774   -0.55702844935722   -3.33468909552514
C         4.92440166028850    0.25830887229033   -2.47588992366139
C         4.25682458473158    0.79840678398943   -1.36390542417151
C         4.84309619880920   -1.15019279580539   -4.55815762959286
C         5.51403443120874   -2.48477492047121   -4.13713670356389
C         4.70440973599600   -3.51414289226303   -3.33118244688378
C         3.83543863830376   -4.22256867738096   -4.36600781611320
C         4.70189481330953   -5.11634024171003   -5.23190842108010
C         6.10943492406306   -4.55897478741000   -5.29526643923964
C         6.04619375213431   -3.05158224356390   -5.46268518775459
H         0.84504602128109    1.57775728060934    1.11510542810073
H         0.95355251024339   -0.17499961702392    0.82202256178176
H         0.49674617378330    0.91236778037429   -0.54570689247054
H         1.20916020245220   -0.75292687576418   -1.62067248594281
H         2.29585602521087   -1.38867662701074   -3.72913325766714
H         5.92090687286423    0.61414974476499   -2.71757383492081
H         4.69872429800142    1.57189192377766   -0.74282736261359
H         5.59731103350913   -0.48750325000489   -5.00671962658107
H         4.12714738986978   -1.35922587226309   -5.36462222329096
H         6.41177333259432   -2.10549068889872   -3.62050960252953
H         4.10393642654232   -3.06073090512870   -2.53497127877914
H         5.36849319580149   -4.19256700696737   -2.77551200038594
H         3.32660198255556   -3.39560725608465   -4.87766535996467
H         3.04271209271352   -4.77215366918975   -3.84179831220399
H         4.33957615596518   -5.20965421785653   -6.26376067754220
H         4.78144605515589   -6.12459439706301   -4.80989784879184
H         6.76226606878497   -4.93366986395297   -6.09105905863032
H         6.66664626293373   -4.82981809647663   -4.38908716103181
H         5.40059863635135   -2.70607155894940   -6.27639560014754
H         7.05808448710138   -2.72816605057274   -5.74894569313554
