35
 energy: -44.218426640101 gnorm: 0.088403924239 xtb: 6.4.1 (025e99ea0bd20707e8cccc6e19fe66a0758c6dd1)
C         1.10783656530047    1.50647389719123    0.51159669204218
O         2.31211424433843    1.72375659065162   -0.21171435573850
C         2.75822580251049    0.81596394877910   -1.13234677641740
C         1.97005689738886   -0.22613547789101   -1.62274230941196
C         2.49463411902311   -1.06067873135306   -2.61463398986003
C         3.81378830373874   -0.93467744786752   -3.07162349240535
C         4.60280874661042    0.04697750133217   -2.45742643132259
C         4.10681878158128    0.91000814887550   -1.46593942735394
C         4.41027316486836   -1.64891026438558   -4.26691617341476
C         5.15318609706955   -2.91507033157467   -3.76348274244623
C         4.27825056153911   -4.17940577882278   -3.78790625045436
C         4.83703583036309   -5.27125906295786   -4.69535147088413
C         5.34450713333400   -4.67202894668760   -5.99256151957136
C         6.44383573940231   -3.64493670925238   -5.81256763733281
C         6.53971740226704   -3.18099547290160   -4.37040745539259
H         1.13110150771668    0.45543764418121    0.81756710497995
H         0.24532079726636    1.68445085037276   -0.13831295744977
H         1.29839208427717    2.14575751689586    1.37993465523581
H         0.92857562441004   -0.08405997128722   -1.34778663977227
H         1.94992805177174   -1.76760541371345   -3.23795016559927
H         5.63180720360618    0.08209349652211   -2.80091664403985
H         4.75881476226749    1.66785384296461   -1.04183601439247
H         5.15827645044250   -0.93983085805135   -4.65019519004459
H         3.70451334898053   -1.81125793848963   -5.09287559630158
H         5.43360945360386   -2.70863375653001   -2.71684913789661
H         3.28131354267098   -3.96105650166826   -4.18608086209213
H         4.06291323728556   -4.51332046359927   -2.76215453484963
H         4.09894776034907   -6.00495983027133   -5.04389495308192
H         5.63874528188388   -5.87515193545847   -4.25057063221269
H         4.50180859703055   -4.32476883590406   -6.60409318469487
H         5.70380216779517   -5.56079563817513   -6.52359693271064
H         6.28504222079315   -2.75155046157720   -6.42617697958653
H         7.42267400682161   -4.04148310986274   -6.11194708666546
H         7.10417020516766   -2.25641604818221   -4.21279641912473
H         7.07791286922035   -3.86789239498055   -3.70034460503674
