35
 energy: -44.229570880031 gnorm: 0.085168254210 xtb: 6.4.1 (025e99ea0bd20707e8cccc6e19fe66a0758c6dd1)
C         0.70904953252446    0.91999706697168   -0.03240626188228
O         2.04572017427208    0.47844722866589    0.16513035253629
C         2.75916127337914    0.28561159351622   -0.98573161960713
C         2.20680395850799    0.07635301065959   -2.25016092441145
C         3.03975405386335   -0.23026026095997   -3.33075116419691
C         4.41331684683324   -0.44838976365758   -3.15574179613343
C         4.97768479417218   -0.18249177407770   -1.90106063288833
C         4.12837854584535    0.09668263483735   -0.81726407417595
C         5.34117489993511   -0.97994301072683   -4.22867138010022
C         5.65221545171383   -2.48796646390732   -4.03464764961384
C         4.44151210860772   -3.30973992359031   -3.56184893349724
C         4.80149206003921   -4.78622002553268   -3.69698718765286
C         4.91627363087798   -5.17704862648527   -5.15761580735386
C         5.21506095861190   -3.97730272396672   -6.03350138849424
C         6.20591627884644   -3.04998261809708   -5.35339557665572
H        -0.01823237907618    0.10217050134652   -0.06491909947288
H         0.64358520392527    1.31138193565240   -1.05246709774108
H         0.44080864848413    1.64523313224071    0.74289061386132
H         1.15014078059946    0.20534317150066   -2.46763225983960
H         2.57326779149050   -0.47619653232340   -4.28305311855806
H         6.02315957341300   -0.42246130161427   -1.73536936107862
H         4.60572495898829    0.33745269493636    0.12796751336912
H         6.27691729049825   -0.40336923854110   -4.26264462919846
H         4.83106138018986   -0.74884275681429   -5.17367907223506
H         6.39803658280286   -2.69378843618635   -3.24846486262942
H         3.61708590523721   -3.18267851226830   -4.27197546013866
H         4.06930611805809   -3.01774870243283   -2.56875297066625
H         4.05807129966274   -5.39268521704615   -3.16397788181497
H         5.78402731363693   -4.89904045685080   -3.22038392644217
H         3.99779296531165   -5.63303562796141   -5.54898584663187
H         5.69487323663965   -5.94176497822739   -5.25756239238317
H         4.29025775739439   -3.50868818964712   -6.38706927808316
H         5.67426909845505   -4.38478917345654   -6.94349267162279
H         6.41583160870092   -2.29940655051655   -6.12207394894287
H         7.11422170229144   -3.66437634852756   -5.26413433361485
