35
 energy: -44.225648338679 gnorm: 0.094387970585 xtb: 6.4.1 (025e99ea0bd20707e8cccc6e19fe66a0758c6dd1)
C         1.10114384204496    1.32916470340824    0.57535018049215
O         2.21375061441278    1.74288058311463   -0.20671165796928
C         2.68287653210263    0.83898000255882   -1.11970217242945
C         2.15518615221712   -0.36936528564715   -1.57699175275106
C         2.73818158958058   -1.12130510608350   -2.60178229562878
C         3.96878992860558   -0.72974693989922   -3.14691423320072
C         4.64987696351390    0.32966102026045   -2.53273756774385
C         3.97472855890731    1.09839071616431   -1.56987530672576
C         4.70496501247075   -1.36905982780395   -4.30621255403582
C         5.32267866600129   -2.73204336609441   -3.89483451820335
C         4.25535791311272   -3.83855388505856   -3.86146214743855
C         4.76556382657884   -5.23132323536256   -4.21884830596611
C         5.41839327515909   -5.21929652252782   -5.58743401320889
C         5.96337239803883   -3.88367634215038   -6.05106763921327
C         6.47573242421568   -3.22642251449869   -4.78230234608980
H         0.99647088796319    2.02476643029152    1.41440808484087
H         1.30212196266940    0.33528448662938    0.98742021225638
H         0.24588918156004    1.37470494301538   -0.10690440733246
H         1.13592824980328   -0.62783159258275   -1.30353641191857
H         2.27170574632095   -2.00110339268906   -3.04147350155479
H         5.66026953219544    0.64916534246083   -2.76742956985196
H         4.37274163317117    1.94335955580107   -1.01588447780236
H         5.53996590031782   -0.72370973989224   -4.61524670112481
H         4.00507748749038   -1.55027602209273   -5.13324387860082
H         5.71154271824284   -2.59220476796520   -2.87212970388367
H         3.51265485173814   -3.60721215877509   -4.63280903431683
H         3.83776586261748   -3.81745746748065   -2.84401063171819
H         3.91566951763282   -5.92567676381696   -4.23008293048745
H         5.50379796167081   -5.66301145338444   -3.53043688373529
H         4.61139635977535   -5.55916576236216   -6.24920909968115
H         6.12728870248075   -6.05340928922795   -5.63959654670188
H         5.20038753810700   -3.25094452948284   -6.51730293600992
H         6.70193343995317   -4.04705989442475   -6.84657682166514
H         7.14303800100125   -2.39882285560112   -5.04321879118878
H         7.06699991975459   -4.01019835584335   -4.28575008598025
