35
 energy: -44.224119157642 gnorm: 0.098381465307 xtb: 6.4.1 (025e99ea0bd20707e8cccc6e19fe66a0758c6dd1)
C         0.96786091517821    0.83651337163506    0.28093481853010
O         2.36880316665113    0.64587478556155    0.13364898704615
C         2.90413001759234    0.26598557908405   -1.06625785794001
C         2.19028917254571    0.06850067778492   -2.24909352327928
C         2.83134550835570   -0.25106061588240   -3.45010151970794
C         4.22070694952453   -0.42595587058331   -3.38709383266673
C         4.92472651390892   -0.33881004795727   -2.17870654846581
C         4.26929101098178    0.00434543347933   -0.98433512979794
C         5.07879861325322   -0.90690310610689   -4.53905555090905
C         5.25281344335868   -2.43890028655133   -4.36233637282505
C         3.89745130467722   -3.15285948132738   -4.22851341883624
C         4.08079188281239   -4.65594335219790   -4.04152005708842
C         5.54939114206387   -5.03348499321195   -4.03549544012253
C         6.08297442670396   -4.57970943735561   -5.37907881118473
C         6.11276280159576   -3.06483887134373   -5.47149409744025
H         0.39386248822106   -0.02901208139017   -0.06580406180089
H         0.67974949944252    1.77931275368101   -0.19457852401398
H         0.85041157602148    1.00670961363143    1.35622299516961
H         1.14639281832883    0.36258445221851   -2.31439641038936
H         2.32520099460277   -0.24360328763818   -4.41381061616763
H         6.00476264891310   -0.41369749751618   -2.10143871188526
H         4.84908887889390    0.12823162763425   -0.07451139515216
H         6.02863950776547   -0.35990800742317   -4.62739559088414
H         4.63842290555084   -0.67779736746526   -5.51897517448502
H         5.79070393972769   -2.62708905870549   -3.41790319615942
H         3.40141753841938   -2.74948390173457   -5.11808719221892
H         3.28274926885327   -2.66787143710127   -3.45587911177106
H         3.56540435600973   -5.17433773554285   -4.86018747273858
H         3.60137607324428   -4.90244974540073   -3.08514684371672
H         5.61847042314696   -6.12454592515362   -3.93794810395451
H         6.12715560945761   -4.50601412950499   -3.26805783796695
H         5.37828027648027   -4.97709784742920   -6.11756334264270
H         7.12850787430360   -4.88743831309132   -5.51009105468831
H         5.75357374037961   -2.70539820451124   -6.44107181337133
H         7.11832750948297   -2.69967570209692   -5.21466448300218
