35
 energy: -44.221531142362 gnorm: 0.101311161701 xtb: 6.4.1 (025e99ea0bd20707e8cccc6e19fe66a0758c6dd1)
C         1.20345056854572    0.82294817106534    0.64081057334310
O         2.29355533279592    1.42102314977325   -0.04814029905382
C         2.71557570868995    0.76296368566085   -1.17042529732000
C         2.00465867299157   -0.18873807125432   -1.90290735459447
C         2.70328791921952   -0.85844587244252   -2.91231384694022
C         3.99005106510200   -0.48137899726401   -3.32090249558827
C         4.64066700913672    0.51982765616075   -2.58760729127507
C         4.01062738094855    1.15199664963291   -1.50257878184847
C         4.68664597272125   -1.29806334213764   -4.38974744158307
C         5.24908024729043   -2.65664472227082   -3.89330966061907
C         4.20776670799424   -3.78788174880770   -3.86837532228748
C         4.72632607818368   -5.19710620468599   -4.13860486870878
C         5.45441539898648   -5.33094153759483   -5.46198380515978
C         6.00318994878011   -3.97880299773995   -5.86991456968810
C         6.46427322780644   -3.09309745791621   -4.72659105345713
H         1.34900006861421   -0.21736929295911    0.94966534857822
H         0.27848042726329    0.89825819065361    0.06050854823346
H         1.20277511156860    1.47906971561850    1.51745750079644
H         0.97876242318529   -0.44560067299952   -1.65385353973186
H         2.22441279763031   -1.64480580759649   -3.49308038102884
H         5.70104493033356    0.74092861884389   -2.65666892250709
H         4.46227931663091    1.90472567699451   -0.86328063849556
H         5.53219173262182   -0.70217063290087   -4.76280181812048
H         3.97543268538744   -1.35586105528095   -5.22491074774596
H         5.66735272082166   -2.55887933382153   -2.87734446409174
H         3.33865291137980   -3.56173231931463   -4.49575119876654
H         3.66525950229055   -3.65701766742474   -2.92043213450270
H         3.85978798574574   -5.86872938909149   -4.18966763680242
H         5.50306716963346   -5.36076196620344   -3.38022191145844
H         4.77065027038163   -5.78444634857807   -6.19102428422390
H         6.25429930965314   -6.05402853291619   -5.26620666157876
H         5.25763750298627   -3.41085679414516   -6.43688851556177
H         6.80113641132964   -4.16671612915865   -6.59996357765181
H         7.03133922607389   -2.21817933408702   -5.06013227691822
H         7.04068305036235   -3.76431587519361   -4.07261588538559
