35
 energy: -44.226740255163 gnorm: 0.092719273748 xtb: 6.4.1 (025e99ea0bd20707e8cccc6e19fe66a0758c6dd1)
C         0.86897166857418    0.80915113120903    0.54158734254035
O         2.17651652671939    1.17149463016430    0.11766635758522
C         2.76953481083874    0.63258386349145   -0.99074311659593
C         2.07776683814590    0.14430196085162   -2.10011550701878
C         2.77276877610224   -0.43278262794238   -3.16756036708345
C         4.16815268690810   -0.51731100884001   -3.27072151303351
C         4.83641758684045    0.16381449446224   -2.24459880423715
C         4.15469717182176    0.67328713792648   -1.12675742876122
C         4.76624841199882   -1.28464557548096   -4.43181000078864
C         5.57131559186739   -2.55773404782437   -4.05812732759826
C         4.47937619529005   -3.55077164734991   -3.62662122767482
C         4.91498345078387   -4.99963391367667   -3.82381619668084
C         5.19680238455991   -5.29402392464579   -5.28438813173214
C         5.58334399484282   -4.08128024869435   -6.10638448642062
C         6.37997547077431   -3.12833746841265   -5.23372240701017
H         0.75569666452938   -0.17323494085365    1.01161152292866
H         0.16898035883976    0.78026801016878   -0.29934650178157
H         0.47346964340806    1.61945308340145    1.16287202858181
H         1.00375910993586    0.00121770389999   -2.18076058107721
H         2.26951793898008   -1.00104759918393   -3.94780816474018
H         5.90747475589523    0.31291862244193   -2.33766324170322
H         4.79324188825270    1.06287911021310   -0.33950186586530
H         5.45899822394273   -0.64343230575708   -4.99585659401189
H         3.94212696722021   -1.50795962051876   -5.12290865411734
H         6.18020854797054   -2.29131610463120   -3.17780575920174
H         3.54546006881069   -3.44426953803059   -4.18925860582100
H         4.23305071407993   -3.45220492240870   -2.55908006958172
H         4.23441139240247   -5.74643792143772   -3.39523852348659
H         5.82858526593198   -5.08961269725223   -3.22174461929743
H         4.22317250976642   -5.62650756228671   -5.66675037314460
H         5.95640560647558   -6.07277071549481   -5.41688018579893
H         4.74031137896084   -3.55988109461914   -6.57254939771621
H         6.21913777735825   -4.48118038444729   -6.90691406379513
H         6.76306816930894   -2.29354820376585   -5.82925761717349
H         7.22299976718709   -3.71420356631807   -4.83807493980517
