35
 energy: -44.224097006474 gnorm: 0.095864368093 xtb: 6.4.1 (025e99ea0bd20707e8cccc6e19fe66a0758c6dd1)
C         0.85391387251715    1.08352277026282    0.35905652427229
O         2.20799899081831    1.22726779653437   -0.04894621044573
C         2.74491873325432    0.56580443097208   -1.11892306819622
C         2.05638650338168   -0.27599253751851   -1.99354896758862
C         2.75620448162169   -0.84593265972383   -3.06168560732032
C         4.13377091959216   -0.61575231362622   -3.18089643487226
C         4.83493294417041    0.09687803503907   -2.19907795375322
C         4.13366073437420    0.66683746308637   -1.12332799236467
C         4.87972164734965   -1.21803149403308   -4.35369846556966
C         5.61047711681433   -2.55832222516523   -4.07415712784263
C         4.51436521524339   -3.53166407160557   -3.60961737437360
C         4.91661819736590   -4.99292100115579   -3.78500873457388
C         5.19816205533237   -5.25914987514021   -5.25102817911046
C         5.49332791076670   -4.00298640445586   -6.04523854263404
C         6.36490551310792   -2.97526982713621   -5.34637383460925
H         0.56986151595218    0.02611343594455    0.35304717836046
H         0.17650058128869    1.63353919948400   -0.30168923586315
H         0.68947693949925    1.31957095241888    1.41558267947987
H         0.98041982779999   -0.39035194178151   -1.89512663068224
H         2.29786478901881   -1.41417830773271   -3.86914749696299
H         5.91870682299006    0.14568838463468   -2.16578815473729
H         4.60021353426701    1.25595299742008   -0.33938669967924
H         5.64816122359486   -0.50272265696632   -4.68086693677119
H         4.32459303874176   -1.39435905460475   -5.28504344642606
H         6.23077811626249   -2.52819466046910   -3.16255731745157
H         3.58275187755929   -3.44196137371936   -4.17896161579902
H         4.28853882139867   -3.37344817519647   -2.54472022609501
H         4.10454826213259   -5.64319562279324   -3.43535360092348
H         5.79782696197323   -5.06223168459910   -3.13391597193438
H         4.35708388099703   -5.76384255527417   -5.74354639161123
H         6.07223559014308   -5.91858937695119   -5.20484632409286
H         4.59483902674256   -3.42585497540680   -6.28918082108637
H         5.84660869731411   -4.33395979842962   -7.03045463847602
H         6.48246972172417   -2.03824349426069   -5.89995818154458
H         7.37777141625104   -3.37371293128217   -5.18571356647121
