35
 energy: -44.218363797771 gnorm: 0.095672344922 xtb: 6.4.1 (025e99ea0bd20707e8cccc6e19fe66a0758c6dd1)
C         1.01657056100312    1.11378874650130    0.51692736751866
O         2.29799556615649    1.41673710607535   -0.01865420016921
C         2.86340373935814    0.67206431019706   -1.01687415817704
C         2.12580239403486   -0.18802772899159   -1.83164724151067
C         2.62575274086706   -0.77778692451623   -2.99686249256357
C         3.99160208849479   -0.62288247849038   -3.27135054955170
C         4.74101442284727    0.30082482973645   -2.53068618120319
C         4.15226620660681    0.97520632113648   -1.44788445001953
C         4.61526957794482   -1.41319469436184   -4.40320424739517
C         5.20183814795355   -2.75140955460749   -3.88009385683317
C         4.17586757454752   -3.89562926205793   -3.82719320716903
C         4.90456146317578   -5.19852835306179   -4.14231315669255
C         5.34553609957184   -5.17274456272584   -5.59291108063309
C         5.96859986556513   -3.84042259784584   -5.95698439299275
C         6.44293467711860   -3.11940046614419   -4.70822727646118
H         0.94773350780954    0.05465748482073    0.78588607070278
H         0.16564106019910    1.42496378632825   -0.09714174575305
H         1.03433991191084    1.73620445807473    1.41764302845857
H         1.11872443457735   -0.36212451559437   -1.46292834840253
H         1.96743144123962   -1.45022571148215   -3.54404823885123
H         5.80761510469854    0.50059496945450   -2.55329953564245
H         4.87072838699922    1.57291886327107   -0.89485245069382
H         5.51369960308971   -0.80929114297060   -4.59641223831919
H         3.91445148462273   -1.51372124460789   -5.24309178817658
H         5.62828958403839   -2.47301240700564   -2.90166173043633
H         3.29553791827936   -3.82332110369727   -4.47518554983397
H         3.75308230617599   -3.85910345033832   -2.81232659071711
H         4.26287188010319   -6.07455346908935   -3.98297749972377
H         5.71820480287013   -5.18274384814025   -3.40543459878808
H         4.46267969104718   -5.34779653058217   -6.22110114547438
H         6.09716074792692   -5.95809134032359   -5.73179445599949
H         5.23162615232370   -3.18281457883681   -6.43057940578243
H         6.81542875091272   -4.03994259406727   -6.62636774264374
H         6.98969054513452   -2.21092706536443   -4.98031076147236
H         6.94823907795995   -3.81786507981276   -4.02464800670338
