35
 energy: -44.223000259614 gnorm: 0.098568119043 xtb: 6.4.1 (025e99ea0bd20707e8cccc6e19fe66a0758c6dd1)
C         1.06047604009301    1.18554354588163    0.61864308876175
O         2.25417766910535    1.63660780588024   -0.00768980961999
C         2.79647568202827    0.90944439633477   -1.03131744046885
C         2.26859254006965   -0.31019227681013   -1.45734011666690
C         2.85715388891347   -1.00542172426496   -2.51835126960025
C         4.06270470494159   -0.62373453717137   -3.12320328599905
C         4.45441168071048    0.66992053494859   -2.75379800692408
C         3.87374266973761    1.44264083445084   -1.73418948027902
C         4.80666375557221   -1.44976346440055   -4.15220706432414
C         5.33742789378982   -2.87869225985775   -3.86069674646814
C         4.17712567815315   -3.87520391618832   -4.01980737948661
C         4.61678298650357   -5.29390641989342   -4.36884332342748
C         5.32695153526045   -5.28319125987592   -5.70858344787458
C         6.07293799405431   -3.99527742238599   -5.99252325641072
C         6.53645493356044   -3.33518092623470   -4.70656623759479
H         0.60776832762395    1.89283534058180    1.32123145933468
H         1.25217550892671    0.26734092128336    1.18268836343374
H         0.34870830034673    0.93924332796082   -0.17617051951421
H         1.34668068677948   -0.71685310704569   -1.05092287197237
H         2.32977162095966   -1.93013366531649   -2.74583537316112
H         5.24804935027229    1.11588701866631   -3.34482235345241
H         4.31332813374577    2.41625550443640   -1.53891578955015
H         5.73189126673882   -0.88094699111684   -4.32427468281508
H         4.26019460728834   -1.44030429925738   -5.10506841082839
H         5.65878705688093   -3.08650236769431   -2.82617341832175
H         3.48940208422324   -3.52546477324614   -4.79751018805807
H         3.57582442516559   -3.91704982565255   -3.09963266378312
H         3.71407350876439   -5.91446209228507   -4.30102268114344
H         5.22049577080191   -5.56154268240395   -3.49182772802309
H         4.69277352245261   -5.60463056666628   -6.54476310080489
H         6.10554117215970   -6.04953468005603   -5.62190179682182
H         5.40916600770550   -3.32009283057453   -6.54334384529412
H         6.89615048220137   -4.19365079236985   -6.69107223240836
H         7.13053501281309   -2.43809238155642   -4.90805157406769
H         7.15627099208475   -3.97352986638446   -4.05941504002578
