35
 energy: -44.212890423563 gnorm: 0.099754004312 xtb: 6.4.1 (025e99ea0bd20707e8cccc6e19fe66a0758c6dd1)
C         1.40252945163103    1.77331475732377    0.74341172919135
O         2.70392780168598    1.42786675820511    0.28766686864614
C         3.01040140937288    0.69657013005054   -0.82675954292475
C         2.08405770051788    0.24419793397978   -1.76745926536837
C         2.42631748910519   -0.55159065345121   -2.86521679714575
C         3.77362298032002   -0.77993314791292   -3.17748454910444
C         4.71927044012467   -0.27565233600674   -2.27477224887925
C         4.32529313477632    0.29926697348924   -1.05488532119368
C         4.15354650077609   -1.55932139326513   -4.41960346577565
C         4.99373529858856   -2.84237551650235   -4.18215647764126
C         4.21326168255329   -4.13054218670106   -3.87209132926887
C         4.26997665313829   -4.89113148933667   -5.19350297323294
C         5.71966338359835   -5.30306631336321   -5.36106148684216
C         6.71504785551771   -4.16323258122773   -5.28471708554662
C         5.94258304780135   -2.86081214111961   -5.39082967824666
H         1.59696738147435    2.55325346517906    1.48686708026563
H         0.92813582988129    0.85291409769891    1.09810189900320
H         0.71723096495453    2.20665636200205    0.00748591820435
H         1.03491723164532    0.45024759216356   -1.57428280450315
H         1.66371554930022   -0.93631726199621   -3.54004775401668
H         5.75037392398068   -0.60819004457632   -2.34035254632251
H         5.05860251159188    0.47480490302655   -0.27338908073207
H         4.73545191621855   -0.90442870089449   -5.08421385765747
H         3.25034958521405   -1.73189654686333   -5.02053259269451
H         5.62649089623489   -2.72206329488560   -3.28670098170021
H         3.16957549470482   -3.83789374833544   -3.71341277190764
H         4.62696844193350   -4.54852193981971   -2.94248097558611
H         3.96283231569955   -4.22267277822104   -6.00799587345562
H         3.64531841701187   -5.79380094898825   -5.20914196189543
H         5.69032569096851   -5.78898679789835   -6.34479009256409
H         6.01986603699046   -6.05050247307144   -4.61794957111393
H         7.54408445148415   -4.15172980119398   -6.00056400030374
H         7.23434378191931   -4.11127428145196   -4.31898755046942
H         5.42447734945307   -2.79263591084345   -6.35271002872205
H         6.50574952937389   -1.91803289964124   -5.45773846456334
