35
 energy: -44.224727062492 gnorm: 0.090688012008 xtb: 6.4.1 (025e99ea0bd20707e8cccc6e19fe66a0758c6dd1)
C         2.67336048068643    1.97220679880305    0.72556197539813
O         1.91475622091685    0.92545756863353    0.13436741579568
C         2.41906822835420    0.35380702323184   -1.00121707215964
C         1.81200916385048   -0.72894185684611   -1.63902849603110
C         2.30374382246738   -1.25097540955255   -2.83951624873325
C         3.53680435750231   -0.81784931095496   -3.34631701940602
C         4.18591280949942    0.24846811157795   -2.70987130767343
C         3.52534189338495    0.89438347479958   -1.65142250545928
C         4.37569733871867   -1.42137651344043   -4.45386422462052
C         5.31308299528816   -2.56146820807799   -3.97425476084815
C         4.38022488110340   -3.76872974039573   -3.78203568054465
C         4.17124687996485   -4.58649104953102   -5.05303373110587
C         5.49068686977572   -5.25105110057044   -5.39478777007711
C         6.63776525680663   -4.38343791100211   -4.91802978200053
C         6.32199589229747   -2.90758403694446   -5.08052844647516
H         2.21716955756968    2.30827723197555    1.66246264342916
H         2.86361958868561    2.81859883708555    0.05816869557119
H         3.65995919078475    1.59166799580490    1.00984875741695
H         0.95374811675780   -1.17534362068908   -1.14447539159855
H         1.75000083724755   -2.09111479404606   -3.25485662242845
H         5.15094953566359    0.62393881296678   -3.03511332307273
H         3.92549480466607    1.85929149916315   -1.35456776202917
H         4.92868881651310   -0.54865711689057   -4.83038329631841
H         3.80910381295120   -1.77778197370558   -5.32484619404718
H         5.76958052262316   -2.32487922161697   -2.99838034242195
H         3.43653512805197   -3.39484419664833   -3.37001371061947
H         4.82571345545793   -4.47624301619105   -3.06719257669992
H         3.85819557226253   -3.99024177283976   -5.91967036515260
H         3.38357270830784   -5.34949262675463   -5.00152998525966
H         5.52153092994010   -5.48768488581733   -6.46612081011805
H         5.60689663943896   -6.20621557866904   -4.87023665290189
H         7.48801114495492   -4.59537210807999   -5.57532471056029
H         6.95125178170086   -4.69049485067590   -3.91182717156495
H         5.80915096436932   -2.73267197156723   -6.03168099595200
H         7.24188832018296   -2.33841339852507   -4.87975823757695
