35
 energy: -44.225668266661 gnorm: 0.090789404668 xtb: 6.4.1 (025e99ea0bd20707e8cccc6e19fe66a0758c6dd1)
C         0.97767336409437    1.15067773825946    0.48749022698961
O         2.36033595563326    0.94991910067382    0.22554461802468
C         2.75940851749318    0.46811911878732   -0.99071067412391
C         1.99273970023571   -0.18877307757304   -1.95423586950431
C         2.61643924852050   -0.60891085988523   -3.13320828061917
C         4.00360071059714   -0.56586657784154   -3.33022039069277
C         4.73132318451873    0.14494807280518   -2.36658131210961
C         4.11923953179484    0.66689819465218   -1.21471494890696
C         4.69011420364776   -1.25330469073099   -4.49244901380963
C         5.40280956946644   -2.57229051037270   -4.09136562063566
C         4.31732156261194   -3.60186237856072   -3.73590762434995
C         4.97057560183951   -4.97775484026831   -3.82546487147163
C         5.45134733854045   -5.25234278571643   -5.23713684714763
C         5.73991513347147   -4.03034898914476   -6.08525207430664
C         6.40141791175391   -3.01330028862691   -5.17295454911612
H         0.47338571906518    0.18291862252113    0.57677976058371
H         0.44700426228220    1.77271303328665   -0.24014580432688
H         0.94217378950004    1.63794271978992    1.46744858685456
H         0.93228886810825   -0.34240086462083   -1.77448088458702
H         2.00824975542774   -0.81374417669766   -4.01248181792869
H         5.78019427700287    0.42118982446929   -2.40678595552420
H         4.71780181104811    1.14171719865204   -0.44298786316502
H         5.38511734566857   -0.56525414668521   -4.99520382221325
H         3.88189254238371   -1.50660757458125   -5.19193315795719
H         6.01363292888583   -2.39724220585120   -3.18972925568584
H         3.40762598470787   -3.63729364669668   -4.34525270712390
H         4.07856613330484   -3.44161944440983   -2.67413843400534
H         4.20840974338179   -5.65224378877999   -3.41468361691702
H         5.84908974389962   -5.10246408373040   -3.17900129961090
H         4.60341447201170   -5.79192980447632   -5.67822310837518
H         6.28292878192920   -5.95748907115673   -5.12650781077631
H         4.86795327935143   -3.60343808619340   -6.59249994377583
H         6.36663640120396   -4.38156572983550   -6.91523322532002
H         6.81513965450165   -2.15221280318015   -5.70742436159333
H         7.22359275655316   -3.61282187261304   -4.75454283490850
