35
 energy: -44.223183567334 gnorm: 0.093120004271 xtb: 6.4.1 (025e99ea0bd20707e8cccc6e19fe66a0758c6dd1)
C         1.06495143224160    0.93732389144340    0.56494224458654
O         2.22158884091738    1.43750791077502   -0.09284285552291
C         2.68912635424765    0.64524629721877   -1.10496799125794
C         1.98319599853093   -0.15228239248157   -2.00678813333452
C         2.70009743508143   -0.80389613630666   -3.01522489425955
C         4.06050827949678   -0.56746647616732   -3.25661020415655
C         4.75640522396105    0.27562670556157   -2.38004926395480
C         4.05725736560812    0.82436863819670   -1.29195504925070
C         4.73127744113858   -1.26960836015695   -4.41924206026844
C         5.34616134942558   -2.61401149865822   -3.94698771727668
C         4.24729598123674   -3.68541906208667   -3.85089621846588
C         4.90323607923705   -5.06180879481483   -3.90688996841603
C         5.33704486349286   -5.32298734130281   -5.33620920388339
C         5.85115722462335   -4.05110823694767   -5.97952225007883
C         6.41029069334684   -3.08532010622308   -4.95050144643308
H         1.13825500791055   -0.13734201401421    0.76129940610486
H         0.16306669323671    1.18033961956027   -0.00561807393614
H         1.20557396817133    1.57099616805206    1.44680987813386
H         0.92437652414420   -0.33760696009722   -1.84859379308562
H         2.11055576296082   -1.51455246348136   -3.59175009165654
H         5.78110527938792    0.63036111032290   -2.42705762976394
H         4.49478211880142    1.52234293260156   -0.58435589253487
H         5.62872350674707   -0.70867056759066   -4.71781311707677
H         4.10832807171843   -1.47920939856264   -5.29939213543332
H         5.81742462896616   -2.48513899204895   -2.95804989196436
H         3.66444528996847   -3.54893027719479   -4.76837032550480
H         3.69010671547460   -3.47745135872040   -2.92551774185360
H         4.14655066572375   -5.80135963742933   -3.61523072694968
H         5.85433732668725   -5.06385909620412   -3.35856811293993
H         4.41010596082836   -5.57922501476428   -5.86519683385841
H         6.10729392029134   -6.10150804012778   -5.37645441665013
H         5.04027685647777   -3.47639211350624   -6.44000591236515
H         6.63134608797921   -4.28559215701253   -6.71526954859223
H         6.82866736382488   -2.22413364878553   -5.48117476353793
H         7.20260029712318   -3.54270593750748   -4.33934707593847
