35
 energy: -44.218331673468 gnorm: 0.101303473920 xtb: 6.4.1 (025e99ea0bd20707e8cccc6e19fe66a0758c6dd1)
C         1.02419677862709    1.55713464165838    0.44646494417985
O         2.39388906535927    1.62419927370174    0.07213786791794
C         2.70941255266829    0.86546599254308   -1.02122200433536
C         1.98203303985667   -0.14729826418501   -1.64803684668678
C         2.61225979624224   -0.86259698306831   -2.67109833225043
C         3.92736356055468   -0.77692866610255   -3.14864051845896
C         4.62143434241845    0.21850211714161   -2.44805431055722
C         4.03887701468021    0.97795802324073   -1.41959521127864
C         4.39142131820152   -1.74174852215342   -4.22028426956035
C         5.16032001274373   -2.98663884280991   -3.70301351260168
C         4.26149702812672   -4.22945302751667   -3.81338999690669
C         4.92964068374191   -5.27120271227486   -4.70568089768806
C         5.40214793894495   -4.80970056276687   -6.07063892903396
C         6.38279355269811   -3.67425952775616   -5.85863071289957
C         6.50187333451509   -3.22741036924943   -4.41280686783033
H         0.76057872864311    0.50778791339971    0.61443317262507
H         0.39275235611118    1.99603914899620   -0.33240126863643
H         0.99059791150521    2.06362238558608    1.41669535688281
H         0.92537963066085   -0.22275490346593   -1.40666744542294
H         2.07351198281603   -1.64994129651016   -3.19532426967620
H         5.68323453279252    0.30010325424138   -2.65776386415585
H         4.66729806207160    1.69671696704445   -0.90213492260918
H         5.02749741948200   -1.19867123734483   -4.93420273211144
H         3.53496530426126   -2.11185575876227   -4.80008284876489
H         5.48595312124029   -2.82710775859941   -2.66128027996633
H         3.32708883518994   -3.91135564904478   -4.28857231609089
H         4.07634926774093   -4.76128634277989   -2.86845116589118
H         4.24906507682658   -6.10844309756715   -4.90672506173949
H         5.79711224734291   -5.73059590731727   -4.21404523924850
H         4.49887670537176   -4.45804957291971   -6.58556032683948
H         5.65920810838939   -5.64261657614850   -6.73484427935351
H         6.14515847425732   -2.85765470315277   -6.54896173821823
H         7.41283513991390   -3.96119464681523   -6.10699339830858
H         7.05102336663734   -2.28075393720393   -4.43670583596645
H         7.07898210875060   -3.91738769647731   -3.77929071372944
