35
 energy: -44.225024905183 gnorm: 0.084714254206 xtb: 6.4.1 (025e99ea0bd20707e8cccc6e19fe66a0758c6dd1)
C         1.24467815451044    1.68437865433925    0.58369636671794
O         2.38434891891200    0.84444368648436    0.45588721308509
C         2.76190171484806    0.45597737002916   -0.79998494726454
C         2.00581568662564    0.31479857203763   -1.96448986964489
C         2.56145006685476   -0.28142483597676   -3.10083529596114
C         3.89292532360532   -0.69802958029062   -3.23684138996578
C         4.64651922376334   -0.43368136612774   -2.08547089534093
C         4.11277023306111    0.14019468259827   -0.91942940922370
C         4.46490438212700   -1.19616088922062   -4.54808220732715
C         5.07257899720007   -2.60984750344612   -4.34622111814367
C         4.10143896984271   -3.79731530458621   -4.23916925286596
C         4.86298401138643   -5.09622247162395   -3.99273320400628
C         6.04062845326175   -5.28921607706799   -4.92828908481734
C         6.02671834075037   -4.29482875385774   -6.07146011776710
C         6.08711608463640   -2.90595878846502   -5.46182654565383
H         1.39617254628365    2.28545369255216    1.48624531632792
H         0.33381139292773    1.08398066114676    0.67221638525117
H         1.22681259701572    2.44273425623193   -0.20597658580310
H         1.02949586595237    0.78491819989573   -2.04358772402697
H         1.90259257314005   -0.34692166872172   -3.96488973918815
H         5.70301703578603   -0.68075432612246   -2.05676857190845
H         4.69060644774918    0.35982155474358   -0.02659015355017
H         5.25639448645545   -0.50442498643322   -4.87096017067019
H         3.64929116410312   -1.21811387493638   -5.28357919294741
H         5.54745334140304   -2.51702307560801   -3.35497281026211
H         3.34190236099450   -3.92933308724121   -5.01748685734531
H         3.53480444728213   -3.61418634226528   -3.31427743827887
H         4.14192406297598   -5.89837374348047   -4.19570922330522
H         5.28301614543554   -5.20169084266850   -2.98392000445673
H         5.89225242802610   -6.30066184867744   -5.32786810447931
H         7.01487072690234   -5.28486353082117   -4.42646161240873
H         5.16719813505518   -4.49687783858535   -6.71974398974470
H         6.96227374657739   -4.42953119411002   -6.62966509215758
H         5.91141546252387   -2.18048200688062   -6.26251877925366
H         7.07901517906556   -2.61295495629567   -5.08665870212854
