35
 energy: -44.217011028972 gnorm: 0.100376208706 xtb: 6.4.1 (025e99ea0bd20707e8cccc6e19fe66a0758c6dd1)
C         0.87229490690370    1.15399882178125    0.29086378123852
O         2.25520808668548    1.31360741276196    0.00319799335424
C         2.81562019977009    0.61353408873398   -1.02951816528550
C         2.05245870073255   -0.08713205181600   -1.96456934525647
C         2.72411488940540   -0.76992193280730   -2.98347501593670
C         4.09594946202032   -0.57630606484167   -3.19670331324421
C         4.83835013875585    0.01738181017377   -2.16723079636139
C         4.20637428017661    0.54545908622323   -1.02897979820947
C         4.69114776892331   -1.27936418116657   -4.39924044912674
C         5.48412817738095   -2.56943648002636   -4.05950275969161
C         4.42427551208793   -3.62163913597427   -3.69312217564208
C         4.97022481570839   -5.03314898033889   -3.88656654102578
C         5.38906752828623   -5.28111709958831   -5.32268643952351
C         5.58986357745247   -4.00276650084923   -6.11093788613973
C         6.37050174137799   -3.05699707836333   -5.21629549067271
H         0.45114869596419    0.18685842888348    0.58431169684978
H         0.27878073846418    1.47163872162463   -0.57217597746888
H         0.62967653010208    1.71329145464830    1.20044271733824
H         0.96892444397689   -0.02744541423577   -1.91108724064848
H         2.24653924754714   -1.48212062398671   -3.65404762228688
H         5.91346364632088    0.15807813669788   -2.21613852569952
H         4.66410135109086    1.21330938562268   -0.30527096048241
H         5.39861344746549   -0.67907624005918   -4.98945398149525
H         3.84437379694764   -1.43840672249485   -5.08066687893100
H         6.05844016692674   -2.33661093262556   -3.14700441870919
H         3.52949719269271   -3.42823480362940   -4.29484418347130
H         4.05946610571126   -3.58963839090241   -2.65585373682260
H         4.04386761073387   -5.58173862598865   -3.67329416464338
H         5.76516295955210   -5.21784150319879   -3.15225280551913
H         4.65976663131023   -5.93870854711906   -5.81298744503083
H         6.35088313544478   -5.80504682403537   -5.28518782160021
H         4.64091716954464   -3.57342669958859   -6.45011165437757
H         6.29611977939858   -4.22738040929363   -6.92072318330748
H         6.64125497477600   -2.12944434795697   -5.73072132534172
H         7.21231751235112   -3.60372860467183   -4.76585480211299
