35
 energy: -44.219299834057 gnorm: 0.087740469844 xtb: 6.4.1 (025e99ea0bd20707e8cccc6e19fe66a0758c6dd1)
C         0.72835468955683    0.30885859717492   -0.11262052261218
O         2.06497957536885    0.76142508493506    0.05853108203804
C         2.85113396212725    0.53154959621141   -1.03681616864161
C         2.36056015159741    0.58163517398691   -2.34238041722559
C         3.09802964213939    0.08993348655384   -3.42398156154396
C         4.39121449722117   -0.42384148615033   -3.25489069037182
C         4.98001938043723   -0.29486353440078   -1.98993565480379
C         4.15854025271483    0.06955435038679   -0.91000691787172
C         5.18347382066890   -1.02526271627108   -4.39737263207390
C         5.64904130186432   -2.45013156339115   -3.99547480142541
C         4.54772154019161   -3.30498998361814   -3.34665687907702
C         4.77836500720329   -4.78545216825027   -3.63454004119378
C         4.59289768345878   -5.11501348650983   -5.10299125872395
C         5.20133533860436   -3.99821344914339   -5.92664224461279
C         6.26254522888895   -3.20640525236518   -5.18425817252812
H         0.81178930726640   -0.49722640929191   -0.84889627614137
H         0.04371367589576    1.04932012138304   -0.53803234135371
H         0.34919693693888    0.00538238771805    0.86878019020224
H         1.31030985649986    0.79121706833395   -2.52546256385508
H         2.58083738970138   -0.11304043630044   -4.36008351173385
H         6.02996110371364   -0.55011666786892   -1.88734570866309
H         4.55449005764694   -0.02316117534410    0.09692910834639
H         6.10768967718725   -0.45815996120231   -4.58019724486479
H         4.62853127851830   -1.01481430625697   -5.34531370004662
H         6.53369015985222   -2.21609137566920   -3.37958778799204
H         3.55475602151910   -3.02777632046413   -3.71716317327722
H         4.50625078181464   -3.04437418097474   -2.27876393238637
H         4.15098521664212   -5.35617354563821   -2.93794468989738
H         5.81655070343628   -5.03255745802894   -3.37692777711398
H         3.54365195685696   -5.26383023380705   -5.38871554389398
H         5.19512790297941   -5.98616710759108   -5.38478532539886
H         4.46488634923802   -3.37071167866345   -6.44021328160097
H         5.77484819409863   -4.55519435650657   -6.67887673733974
H         6.57658394053220   -2.40500919316110   -5.86060081252064
H         7.10307320196825   -3.81546253473169   -4.81952824086469
