35
 energy: -44.223426867100 gnorm: 0.095712519960 xtb: 6.4.1 (025e99ea0bd20707e8cccc6e19fe66a0758c6dd1)
C         0.87544136293935    1.37646322710656    0.20938369083451
O         2.27380252423021    1.53524494383485    0.00925919196029
C         2.79590328571876    0.74532749883847   -0.97771006191126
C         2.11840663710090   -0.11486382139111   -1.84300679389165
C         2.82082913218201   -0.87580141905359   -2.78272454871434
C         4.21173711665672   -0.73072665946737   -2.87870276086343
C         4.90639009519610    0.09068670530624   -1.98083022463973
C         4.18605199110241    0.81487893322065   -1.01618878942231
C         5.06231199823753   -1.27953806559883   -4.00563476784889
C         5.33363704532795   -2.80531296045469   -3.92244904556153
C         4.04682283585971   -3.57674049366671   -4.25958638491428
C         4.20095690825797   -5.06431926928356   -4.56156896111290
C         5.41249157746476   -5.41716894134500   -5.40242484739270
C         6.05465385262622   -4.19870979338972   -6.03395043326602
C         6.40462396218112   -3.18954422128050   -4.95535573219454
H         0.58445732745477    0.32805514435961    0.08688821847614
H         0.33233742862408    1.94818511452098   -0.54967098697988
H         0.69333784200186    1.75769152504275    1.21958617734213
H         1.07660854172183   -0.35982489019609   -1.65560312678572
H         2.26884134221957   -1.53080248367672   -3.45448059484965
H         5.96132411205013    0.33516506160617   -2.05432207056838
H         4.73418115359285    1.44965521028519   -0.32632931926889
H         5.98193963007190   -0.67789687614602   -3.96667034184468
H         4.66351124972093   -1.01161382698500   -4.99347951017368
H         5.60974472949597   -3.05707940698576   -2.88462756564410
H         3.66283822266580   -3.03216786386240   -5.12912610220631
H         3.23234000237172   -3.45749292332799   -3.52990597840499
H         3.26824063543363   -5.37013869772036   -5.05257630012294
H         4.24777740362601   -5.70575298184140   -3.67183570032529
H         5.20359084831226   -6.16187146651865   -6.18119311851951
H         6.09671740219135   -5.84977376413783   -4.66371932253244
H         5.26016931390777   -3.72330148834054   -6.61931532542335
H         6.92504312605559   -4.34867974648278   -6.68581927182061
H         6.78345775123654   -2.23764671873804   -5.34093507030958
H         7.27507638342408   -3.66241197653864   -4.47663385384849
