35
 energy: -44.229207750982 gnorm: 0.070230626805 xtb: 6.4.1 (025e99ea0bd20707e8cccc6e19fe66a0758c6dd1)
C         1.35136267864601    0.43066113178506    0.59742846972103
O         2.56841865985339    0.86347063866569    0.00402636691487
C         2.92958628168426    0.19876297815970   -1.13544226505044
C         3.86209382419617    0.87640806622583   -1.92214175949343
C         4.25249417763470    0.44171564676886   -3.19262313434351
C         3.59051437437595   -0.62302523809090   -3.81951477217052
C         2.52189971893716   -1.17123912285549   -3.09773779014362
C         2.22552762203824   -0.82145939278290   -1.76969706199020
C         4.10667163716631   -1.16661607734882   -5.13584983784930
C         4.89116085892032   -2.49673955886233   -4.98133655945967
C         5.99407623778426   -2.27581514386188   -3.93280286727747
C         6.69043658729774   -3.58982801821096   -3.59178404867999
C         6.36398027850180   -4.71624104037626   -4.55302166279617
C         4.87286202008499   -4.96920272922405   -4.46128087467885
C         4.02737188447056   -3.72141238094705   -4.64135429111750
H         0.49339863236829    0.49326865423471   -0.07992989257314
H         1.16552013252450    1.13478052312123    1.41453937709506
H         1.43785534035422   -0.60506033508113    0.94211068974222
H         4.17088098778723    1.83066294357791   -1.50438888975121
H         5.10189849395650    0.85243998046751   -3.73556966958795
H         1.80713037033965   -1.84386044897333   -3.56114023838451
H         1.39636612368792   -1.37889882132706   -1.34420314129000
H         4.73769863158423   -0.37551052303543   -5.56615468460894
H         3.29044348832072   -1.28605484228422   -5.86122467753565
H         5.36398739413276   -2.72998400969948   -5.95021597074666
H         5.51571901614355   -1.97409273183240   -2.99459137372904
H         6.71777181101676   -1.49909378906719   -4.22090774273896
H         6.28132505238743   -3.87700092167724   -2.61467972880802
H         7.77808085682228   -3.45472199213088   -3.52829430870125
H         6.87426689038433   -5.58652436768519   -4.12068395846561
H         6.73027818465298   -4.64511771908544   -5.58344151941692
H         4.70769039817940   -5.42630008912814   -3.47962353418753
H         4.62597737698435   -5.72785237034865   -5.21527036522534
H         3.41221841732560   -3.49428302168594   -3.76483059776405
H         3.32727856281887   -3.95318475247793   -5.45782038160632
