35
 energy: -44.222910535332 gnorm: 0.089933661840 xtb: 6.4.1 (025e99ea0bd20707e8cccc6e19fe66a0758c6dd1)
C         1.62880946312248    2.16381603593311    0.26875948126651
O         2.97786424139405    1.77911551807004    0.03912476606212
C         3.16327320649217    0.74565274277076   -0.83737126984739
C         2.19381205894258   -0.21528289241136   -1.12791740774640
C         2.33927820879103   -1.08120972111986   -2.21626624524306
C         3.53444630819966   -1.05527239332663   -2.94823893122678
C         4.55300569742707   -0.18340779133467   -2.54102075607289
C         4.40500329746823    0.70937755105004   -1.46635611994394
C         3.58142293401986   -1.91778131408937   -4.19263392078675
C         4.36365048654508   -3.25301400878485   -4.07516103542488
C         3.99713724048608   -4.18891945197104   -5.23894876345294
C         4.96058662790008   -5.37196197297670   -5.24308134446274
C         6.30285438331762   -4.79641620346554   -5.65103000505247
C         6.57802401548724   -3.38092552221442   -5.18572639005250
C         5.87739897173929   -3.08250692297094   -3.87258829881537
H         1.52244195469087    2.96641453421571    1.00588766591864
H         0.95701147655619    1.38047436902496    0.63352666710254
H         1.15271845528684    2.46707302264363   -0.66952529552043
H         1.20981840771456   -0.21530175117409   -0.66723765395755
H         1.45258898863966   -1.63088001035831   -2.52710046301220
H         5.54224465554256   -0.13287943109046   -2.98476580188362
H         5.08288923340976    1.45054871214453   -1.05352618234299
H         3.98476226654344   -1.38461126848538   -5.06570459737715
H         2.52634848763914   -2.15469690848299   -4.38589951581776
H         3.90969885873278   -3.75588497482947   -3.20467615106065
H         4.21314618521088   -3.64954645216244   -6.16766818008940
H         2.95813598198545   -4.54918064807265   -5.26585638932218
H         4.57234287681796   -6.08999361968218   -5.97675069819358
H         4.93610253453326   -5.94331798971816   -4.30595409899616
H         6.46142527042594   -4.82909753643610   -6.73661214869353
H         7.08075589834711   -5.38496838342114   -5.15155695355721
H         6.32734596500711   -2.73086327951634   -6.03097806292283
H         7.67065694244750   -3.31705137173348   -5.10161433833887
H         6.07457160315390   -2.05135072226396   -3.56253158929027
H         6.26760493040492   -3.73875584304793   -3.08041241446431
