35
 energy: -44.226482474757 gnorm: 0.084412146045 xtb: 6.4.1 (025e99ea0bd20707e8cccc6e19fe66a0758c6dd1)
C         1.05330528023415    0.82658692363344    0.61570368170385
O         2.24887088189586    1.33247243007426    0.03658527938165
C         2.80287318132382    0.75295480416473   -1.07152475782659
C         2.14272919309451   -0.17710535472258   -1.87580535550492
C         2.78622171380379   -0.89275647828794   -2.89032677424658
C         4.08967203502766   -0.54800005688511   -3.27378970479298
C         4.67408390987995    0.54278219638945   -2.61645067545225
C         4.06154209515170    1.15541367182016   -1.51039929366169
C         4.71515275638903   -1.35894816982106   -4.38993681258766
C         5.25634371136519   -2.71337972863564   -3.85969754063934
C         4.16146709670959   -3.79125049061176   -3.92367143706364
C         4.72001117386014   -5.20452029686627   -4.05982714292199
C         5.45757725207584   -5.28112372282823   -5.38250849773174
C         5.89794288735800   -3.92809350115266   -5.90330306200113
C         6.43747669807524   -3.06341375674635   -4.77836174292380
H         1.02820062794007   -0.24300419565004    0.84847169384844
H         0.20000144590845    1.21051910474984    0.04784767179554
H         1.08152532487257    1.46176089261415    1.50719873569696
H         1.14154809412729   -0.48453263732988   -1.58667871761906
H         2.18056152139344   -1.51404762236162   -3.54770502198434
H         5.61279330388985    0.98419329150210   -2.93588363774269
H         4.59360164102920    1.94967763214520   -0.99527796174698
H         5.52752292123646   -0.81170000650323   -4.88971625420681
H         3.97743323273064   -1.44927169516115   -5.19880901613160
H         5.66040682880004   -2.68029586958624   -2.83386437771698
H         3.55310128189721   -3.64534236178969   -4.82295154148296
H         3.46286082855813   -3.60994064984630   -3.09354386196104
H         3.90018502860171   -5.93419516220221   -4.05407742689528
H         5.48307109971453   -5.37047583257038   -3.28817116171845
H         4.81618324791492   -5.82826019638860   -6.08532909918577
H         6.35307987966335   -5.90435644157877   -5.27929131129514
H         5.08869599842836   -3.38459602476249   -6.40290366523377
H         6.68515658359548   -4.14878404296276   -6.63582728686683
H         6.96173174881021   -2.14384063025657   -5.05735498593334
H         7.17563974954851   -3.64515814440230   -4.20638731315291
