35
 energy: -44.221407744650 gnorm: 0.098472680993 xtb: 6.4.1 (025e99ea0bd20707e8cccc6e19fe66a0758c6dd1)
C         0.76384244538790    0.86140001182192    0.13257582233230
O         2.18345977422778    0.86492695722437    0.05943505884170
C         2.86546603572066    0.50223500570792   -1.06927618587898
C         2.23412284198628    0.14277054724951   -2.26085510296438
C         2.88359578185883   -0.38434365796446   -3.38149257986469
C         4.27547479578738   -0.54679951007278   -3.34736885493407
C         4.90714708804187   -0.19192567353896   -2.14799717129134
C         4.25530125792916    0.41768138838974   -1.06293925158815
C         5.15251281916726   -1.16631239888746   -4.41585161794100
C         5.52813213647477   -2.55616375749709   -3.83641264696272
C         4.23570027388386   -3.35658602403273   -3.60490256211811
C         4.39936178859407   -4.82775702706049   -3.97464868659681
C         4.83159302494128   -5.11277466550397   -5.39988511404088
C         5.81380919396129   -4.05986900960415   -5.87156374181810
C         6.50475124993095   -3.33805139795026   -4.72883053862587
H         0.34651805618791   -0.12839405176391   -0.07951948439458
H         0.37533716012204    1.57406574028104   -0.60170137570630
H         0.55162086583066    1.24980719217476    1.13412843303436
H         1.14974009635720    0.20971795602562   -2.27092647096780
H         2.26692599201943   -0.65573627423452   -4.23649990085894
H         5.98849065516722   -0.24153049111237   -2.22731899970074
H         4.78163007513277    0.79893613877720   -0.19293042011540
H         6.06559675131373   -0.58742229389468   -4.61677275370331
H         4.68084013222373   -1.25628355944283   -5.40382567280997
H         6.01221424948409   -2.45421867914731   -2.85052881226463
H         3.47458675596902   -2.91255215332363   -4.25578119020848
H         3.85263607782315   -3.12982347862042   -2.59898192021534
H         3.47560663777699   -5.28531791692249   -3.59796867595117
H         5.12287703031638   -5.17685437618692   -3.22637642348955
H         3.99920500912595   -5.10298776502348   -6.11524222373588
H         5.36723475852779   -6.06592053355351   -5.32506097024097
H         5.11960084554906   -3.29949685869612   -6.24543505463622
H         6.52937463694076   -4.47942337199696   -6.59055031470567
H         7.25896563163928   -2.62996237102006   -5.08669352752972
H         7.14163983139015   -3.94138721952513   -4.06488416129260
