35
 energy: -44.224072138642 gnorm: 0.099873774692 xtb: 6.4.1 (025e99ea0bd20707e8cccc6e19fe66a0758c6dd1)
C         0.83459015491450    1.20761422621948    0.17109864838876
O         2.20800633332554    0.84112594180792    0.18057073669299
C         2.76975365315953    0.37902153999933   -0.97768940792466
C         2.03001106368984   -0.23921852076456   -1.98676294184885
C         2.72264626923251   -0.68879411107215   -3.11531560631987
C         4.10014124935063   -0.52699400514990   -3.31832260035577
C         4.77647497956577    0.09517326387519   -2.26053323448782
C         4.15407414623275    0.49911306462922   -1.06750167512906
C         4.86542868427382   -1.12332755732800   -4.48166638829905
C         5.55570050560494   -2.44262386445565   -4.04404983289961
C         4.57631519102968   -3.48210593345696   -3.47401976998677
C         5.12342333938990   -4.88230345582256   -3.73471303780023
C         5.20582465970839   -5.33966588526402   -5.17810743995625
C         5.47023010059974   -4.10781494697271   -6.01981563090688
C         6.24539845064217   -3.02845346953318   -5.28608980242711
H         0.06067656624116    0.48801158567171   -0.11537325416853
H         0.61252553649085    2.03441106212283   -0.51087356404777
H         0.53870933782966    1.50575200886819    1.18232274557167
H         0.97189117274987   -0.47564889273840   -1.91639030208884
H         2.24976117231195   -1.28989088744249   -3.88993516749227
H         5.80893088492771    0.38015268741871   -2.43625470214772
H         4.59973444351870    0.91279247592797   -0.16775235770610
H         5.61922406663467   -0.42184356831030   -4.86756541454392
H         4.17355605686177   -1.28420861181410   -5.31957582615628
H         6.38031335840916   -2.26778104879177   -3.33261546807839
H         3.65165978725739   -3.41509211621087   -4.05765011994232
H         4.43601834566420   -3.24632233618103   -2.40876925572963
H         4.48759811075997   -5.58514528748074   -3.18125751547258
H         6.08233711822722   -4.86681449489586   -3.20039187923042
H         4.26814098921952   -5.76779669280598   -5.55514156607735
H         5.91065356543459   -6.17435728781346   -5.26473445928713
H         4.50463031807467   -3.68290012781596   -6.31466347732785
H         5.98870623328950   -4.37486269577072   -6.94979921015907
H         6.50782482266695   -2.29189173411540   -6.05218674871785
H         7.27255425362321   -3.40432596409880   -5.16719155419233
