35
 energy: -44.220927530951 gnorm: 0.090264869261 xtb: 6.4.1 (025e99ea0bd20707e8cccc6e19fe66a0758c6dd1)
C         0.74136280982724    0.80474753202992    0.34159632138541
O         2.12631519952788    0.97061443750266    0.06760649429898
C         2.60696389413137    0.39252512124147   -1.07495931685068
C         3.95846429940174    0.26184978363599   -1.39751140057080
C         4.45653461669982   -0.42379660429693   -2.50985479344809
C         3.58606221689122   -0.88517874495390   -3.50699461685320
C         2.21703398905404   -0.72923488986270   -3.25227715567683
C         1.77449406239355   -0.10171134545775   -2.07573686430743
C         3.86991038181913   -1.43412088884758   -4.89001307548720
C         4.84237240212108   -2.64352648928578   -4.90349943083528
C         6.30636661612664   -2.23537327240283   -4.66943805644747
C         7.16244863923954   -3.48585555675631   -4.49263581895221
C         6.49632973219757   -4.78278556837082   -4.90930825044324
C         5.25883754777464   -5.03793728127751   -4.07303655645077
C         4.59488019490456   -3.69782271515740   -3.81320133675268
H         0.20105808003376    1.49063867065255   -0.31905525225667
H         0.56633968239998    1.10315003372995    1.38001562668923
H         0.36995963091670   -0.20314534762896    0.12895251347961
H         4.77411182027807    0.63352484202805   -0.78347060477981
H         5.54031293257038   -0.50712209416494   -2.45107962213830
H         1.52639067914407   -0.96019784549603   -4.05709044287616
H         0.68918018118437   -0.09051049881521   -2.04022772797962
H         4.33451975673477   -0.63597542432909   -5.48692786684297
H         2.88519454152126   -1.72919038135595   -5.27722281339117
H         4.74437897362258   -3.03195261017665   -5.93122393617703
H         6.44286920793570   -1.64924261244568   -3.75405794805965
H         6.65517838258569   -1.59920032164969   -5.49626941407170
H         7.39072994766592   -3.63025211302597   -3.42886391909409
H         8.10985311972646   -3.31906865875404   -5.02165521733509
H         7.26596330899546   -5.56303647683631   -4.84952477944494
H         6.16426257163047   -4.79794905303155   -5.95357796364189
H         5.49400333976419   -5.57529653831717   -3.14793500843586
H         4.54351980224730   -5.69746194088058   -4.58131719120279
H         4.92997661590082   -3.23781065558733   -2.87811063812160
H         3.49974660842884   -3.79122074696282   -3.76395496725466
