35
 energy: -44.225479274573 gnorm: 0.090478821384 xtb: 6.4.1 (025e99ea0bd20707e8cccc6e19fe66a0758c6dd1)
C         1.06518479387063    1.15107475457032    0.57247576810641
O         2.36733196308895    1.37477825084489    0.04802855889744
C         2.78772846288428    0.69445599574404   -1.06151886925432
C         2.07780980747982   -0.24565801283033   -1.80976375408770
C         2.62886050211010   -0.81361982323842   -2.96269713134246
C         3.99016917746177   -0.57392035487121   -3.19564861984557
C         4.73716533919597    0.36563952822399   -2.47269514149422
C         4.08397867623083    1.04446571782025   -1.43038201933237
C         4.67079486011045   -1.26756350762255   -4.35765344038429
C         5.17509877403944   -2.67556069727667   -3.94322895385902
C         4.12634655688539   -3.79867993978358   -3.88513604115593
C         4.83809323013369   -5.12435664345842   -4.13780055492820
C         5.35893820660323   -5.28917365370616   -5.55233709834092
C         6.06234246326945   -4.01262395777014   -5.96644212617205
C         6.37914938377745   -3.08972971251224   -4.80361782915450
H         0.87720152804749    0.07718817994963    0.67379838330480
H         0.27974424849150    1.58386374956388   -0.05503410153762
H         1.06191060949356    1.63998359978138    1.55225288096392
H         1.09458647197100   -0.60263194420975   -1.51597672745451
H         2.08103839465411   -1.63602619049600   -3.41932807064445
H         5.76952753999237    0.49547073008263   -2.78161040796541
H         4.43796605308051    1.78336832955482   -0.71763489816648
H         5.56180554391540   -0.70564620454211   -4.67317560057733
H         3.99856081445002   -1.41150948966165   -5.21441689383355
H         5.56919714889052   -2.58711455476704   -2.91679874447986
H         3.38002120099785   -3.73869697535021   -4.68482557923422
H         3.76466854983964   -3.77034114458807   -2.84666519484650
H         4.11405830730220   -5.93126981223716   -3.96680948814532
H         5.70865335370713   -5.29421426157097   -3.49086307447279
H         4.56246630054211   -5.50969737048398   -6.27462733035196
H         5.96461693886550   -6.20047741214575   -5.61297122371588
H         5.51632195425313   -3.41448377377674   -6.70397905364044
H         7.03153865576420   -4.35508123911410   -6.35164753718805
H         7.00383261046020   -2.25686876731032   -5.14186157471999
H         7.05671110545094   -3.66361639084812   -4.15397934252224
