35
 energy: -44.217409436438 gnorm: 0.091099264142 xtb: 6.4.1 (025e99ea0bd20707e8cccc6e19fe66a0758c6dd1)
C         1.54725819677336    0.61278243227400    0.71019294264077
O         2.76155878111777    0.44733787758638   -0.01006920521993
C         2.78994555317287    0.14859547703963   -1.34446578808471
C         3.87827017460243    0.69591006572134   -2.02539568333317
C         4.20163731984063    0.36031974206954   -3.34384389328074
C         3.42547629073124   -0.62105530578502   -3.97579374181414
C         2.25366893535086   -1.07776087118863   -3.35795451216679
C         1.94865545430922   -0.72083690173935   -2.03377683981010
C         3.89594762029550   -1.29793605033042   -5.24667396202464
C         4.83184585377187   -2.49361106999201   -4.92576598273734
C         5.71956366052698   -2.33677719036407   -3.67996781748237
C         6.93016611240134   -3.26536830739335   -3.67868452265734
C         6.53554367243139   -4.59152613758106   -4.29911687867015
C         5.05861152499719   -4.92185852522137   -4.22568939699895
C         4.10761706068494   -3.82402659502739   -4.66686435484571
H         1.71299740279025    1.26634716162600    1.57287481592988
H         1.32144668638766   -0.41099548666949    1.02464442904754
H         0.68000656210568    0.94883194359638    0.13230792648784
H         4.58212088316339    1.22312524761196   -1.38734578428875
H         5.00630847524386    0.90222107847610   -3.83762560446332
H         1.64181645169503   -1.87274785929442   -3.77230789053312
H         1.05553622100197   -1.04467081355495   -1.50769489217373
H         4.48822223990502   -0.52634513117622   -5.75957118540773
H         2.98748323442901   -1.67198478794635   -5.73804213325654
H         5.49602097540664   -2.55816614717682   -5.80405937051477
H         5.10497627178812   -2.66967068853629   -2.83642344182273
H         5.96440848297588   -1.28597245233765   -3.46573387585202
H         7.29916077005944   -3.39178732922815   -2.65280219524967
H         7.83772389329683   -2.79631558936038   -4.08065848265969
H         7.12677663186523   -5.34801662527977   -3.76726434622914
H         6.78648452098727   -4.54742620304738   -5.36498818935232
H         4.81541262747325   -5.31020991707493   -3.23074804779174
H         4.97344846905425   -5.79800548778458   -4.88152109192123
H         3.37199696394873   -3.59647966252508   -3.88880215356728
H         3.57989073798040   -4.20702271405455   -5.55302735966972
