35
 energy: -44.216713438709 gnorm: 0.093257973294 xtb: 6.4.1 (025e99ea0bd20707e8cccc6e19fe66a0758c6dd1)
C         1.88521447382847    0.72092132512807    0.85646614005743
O         2.56424552071518    1.30911900812137   -0.24517613979485
C         2.81330209661547    0.42505219080384   -1.25861769308433
C         3.86973153566156    0.93180464976541   -2.01679186004639
C         4.17683132011365    0.39012985568460   -3.26889848873129
C         3.46628303261836   -0.74365794072265   -3.68666625025829
C         2.31714261928036   -1.14784132319136   -2.99417085921466
C         2.02395906584713   -0.62326544867016   -1.72423463539396
C         3.81430679081125   -1.43847354145420   -4.98695779009939
C         4.75425483524381   -2.64984430103228   -4.74694793389883
C         5.22475771718109   -2.84645026068931   -3.29621502713297
C         6.54147602160965   -3.61453970856868   -3.36050275797839
C         6.68468891548847   -4.43396878280540   -4.62832917685054
C         5.35060416477316   -5.02100241992924   -5.04239322455393
C         4.26466528679617   -3.99412945075886   -5.30796697749636
H         0.81490005981126    0.66479696461828    0.63260575866569
H         1.92702226437392    1.32122172452754    1.77073269998563
H         2.33832882388824   -0.26828234824599    0.97962965055312
H         4.29976666948860    1.88506275586467   -1.72210879365523
H         5.00003569700692    0.76616833174501   -3.87379742842064
H         1.62758375222963   -1.87423321322046   -3.41240510489038
H         1.11693667060475   -0.94451389897620   -1.22084374343751
H         4.34713861572492   -0.61597778884435   -5.48575265647239
H         2.85172062750228   -1.65111764773625   -5.47159480776978
H         5.65668520635855   -2.41835503934454   -5.33747936464085
H         4.47438407329506   -3.40923193812949   -2.73024768837513
H         5.35749175785459   -1.89642555829703   -2.75781879375498
H         6.63575058428904   -4.25440892603543   -2.47379363591451
H         7.37683922221716   -2.90257769959460   -3.38359093230875
H         7.44099442058118   -5.18737149848185   -4.37320623151907
H         7.05240933892033   -3.73229162992287   -5.38557988023323
H         5.06438979143817   -5.73364519080422   -4.26130910037884
H         5.58691324206438   -5.59052808783319   -5.95057822282168
H         3.28537423940763   -4.25899515583455   -4.89671216427740
H         4.17759667541977   -3.90332287606255   -6.40096249048088
