35
 energy: -44.222947872071 gnorm: 0.096034704723 xtb: 6.4.1 (025e99ea0bd20707e8cccc6e19fe66a0758c6dd1)
C         0.87077670751423    1.20867919392416    0.40281341132902
O         2.19746509043993    1.49432019730485   -0.02024985754331
C         2.74543141380158    0.66404982144717   -0.95889306942376
C         2.04463021463574   -0.23170454673767   -1.76770146334434
C         2.62181705329234   -0.91804657267406   -2.84067993628715
C         3.97908753099215   -0.70281922012491   -3.11704481643777
C         4.68704770279298    0.12267914476125   -2.23342577684642
C         4.09476880270740    0.89088566253390   -1.21708975870537
C         4.86484417585481   -1.19537722100073   -4.24286411928176
C         5.45929116513558   -2.61105246361156   -4.01698240727887
C         4.36955418592574   -3.68915082048561   -3.89520359011977
C         5.05577379067735   -5.04875169951061   -3.98701594639380
C         5.35026821237777   -5.37265521591700   -5.43881390645337
C         5.76125887248718   -4.09917969197404   -6.14957857609358
C         6.34169446018300   -3.08225139178290   -5.18354953032739
H         0.66896177107690    0.14771003654294    0.58295650367679
H         0.16203209508962    1.39861175183233   -0.40934328437298
H         0.73617301193157    1.67769946148390    1.38307235791694
H         0.97548796667158   -0.32407345744247   -1.59778336907476
H         2.03524748212922   -1.58819426530914   -3.46662825718011
H         5.74205867832821    0.22613357576421   -2.46646123036656
H         4.74484895555539    1.56850201474121   -0.67163174039149
H         5.61524951801959   -0.39960392786863   -4.35618672606794
H         4.23552646877413   -1.22478570612656   -5.14272912903776
H         6.02875996635316   -2.52716857193570   -3.07604457951589
H         3.54774502792252   -3.51080168131195   -4.59728915602565
H         3.90794048575934   -3.57515175752079   -2.90325965411269
H         4.37499794654062   -5.79226132971570   -3.55306772854797
H         5.96773706532933   -5.06539307811387   -3.37603256463627
H         4.46650878276848   -5.79573248384570   -5.93346154069508
H         6.22376926325175   -6.02863240050544   -5.52649293376697
H         4.89556706736539   -3.77204740756284   -6.73561011215161
H         6.54480391752543   -4.38677248939217   -6.86256455242463
H         6.65206859448135   -2.20808578687811   -5.76475320523897
H         7.19392318483399   -3.50641667838762   -4.63195549438257
