35
 energy: -44.213246067662 gnorm: 0.110816989128 xtb: 6.4.1 (025e99ea0bd20707e8cccc6e19fe66a0758c6dd1)
C         0.97684282703324    1.12563396793266    0.45495945971909
O         2.34657939654168    1.24848056865504    0.09522927274921
C         2.84900705368026    0.70936665783411   -1.05698151294763
C         2.16747064182248   -0.32115354404839   -1.70598494618709
C         2.71618678365183   -0.94956863721851   -2.82825848668103
C         4.04999988923015   -0.67303917988936   -3.15895103969412
C         4.69823325969929    0.40535560308639   -2.54226965502597
C         4.05764241860555    1.18160079617652   -1.56198336567892
C         4.73755211329486   -1.28610467054551   -4.36147753350707
C         5.22880759746395   -2.67793507927504   -3.88189192843547
C         4.15793476861132   -3.78105567989326   -3.85012459763737
C         4.80654345639056   -5.13126780851676   -4.14008215504960
C         5.36516498614054   -5.22722112631804   -5.54652899623915
C         5.95738791026926   -3.91225239272992   -6.01125352590971
C         6.38677256312396   -3.11621037806431   -4.79215275339075
H         0.93748437660023    0.50964520374601    1.35930735030178
H         0.24045935114830    0.76232128363483   -0.26873596196517
H         0.61590525635355    2.09462882202424    0.81520771980355
H         1.14114137597511   -0.50687202840580   -1.40163941389354
H         2.10642973195857   -1.65299023749546   -3.39249910832546
H         5.70703070408750    0.68518173465700   -2.82876840771561
H         4.56617167828969    1.97133340145082   -1.01699439811547
H         5.72214721505687   -0.80116696085087   -4.42939832840717
H         4.25238723345417   -1.34158471730958   -5.34544890579780
H         5.56203356885043   -2.60715417420685   -2.83277528010210
H         3.45550670261846   -3.72340567261255   -4.68879863469843
H         3.69984878137628   -3.90123794608310   -2.85727555677516
H         4.08065490844860   -5.92185282911868   -3.91066001636603
H         5.53289090572364   -5.46676752724017   -3.38834153199877
H         4.55057728080281   -5.48829921027875   -6.23426912970317
H         6.03108141716058   -6.08734680635988   -5.67970889725851
H         5.22131154956738   -3.31609874178017   -6.56140188058251
H         6.84594572719100   -4.10214557906581   -6.62721378606426
H         7.04275151559574   -2.26832646013121   -5.01369236055723
H         7.08355041807439   -3.77463713795386   -4.25230018697310
