35
 energy: -44.222387095071 gnorm: 0.096993883486 xtb: 6.4.1 (025e99ea0bd20707e8cccc6e19fe66a0758c6dd1)
C         0.75546454222919    0.85584273457582    0.17800612731669
O         2.16609267611469    0.96758763340221    0.04266683232402
C         2.73660085473326    0.33061562659551   -1.02478534513720
C         2.06161835725259    0.22640341324392   -2.24183410413335
C         2.75662278242036   -0.23361491311913   -3.36470756756482
C         4.12374921300298   -0.53531036385117   -3.29521891212948
C         4.80133356291272   -0.44003953744166   -2.07241858427540
C         4.11740551888921    0.15314561410215   -0.99805912984501
C         4.80447647027108   -1.14688749704840   -4.50237719194998
C         5.64915797724277   -2.41650017898497   -4.21406669097557
C         4.83331964771368   -3.43116211298250   -3.39582357028109
C         5.41164232812992   -4.83355526777556   -3.55915672244851
C         5.17746562470960   -5.25598093298383   -4.99654170839109
C         5.13911283963248   -4.04768591572112   -5.90999223488950
C         6.20315322967995   -3.04468251839653   -5.50248396087086
H         0.30278332128361   -0.14074011214625    0.15082719296978
H         0.23573766619436    1.59263747103732   -0.44248504288964
H         0.61614953522743    1.23234604776559    1.19675160896821
H         1.12058947302625    0.74221124105933   -2.41176422577645
H         2.19840925136445   -0.25219714396961   -4.29906587302212
H         5.87170541486891   -0.55002308575422   -1.93006623245757
H         4.54202361868429    0.51144972229298   -0.06499417262271
H         5.37887896334402   -0.31507525159877   -4.93522298721543
H         4.04548687082122   -1.35953959557721   -5.26747622868309
H         6.48664024515622   -2.08490207795184   -3.57738673420442
H         3.78103583439045   -3.45945754947836   -3.69914022403123
H         4.88642870970094   -3.23781104762141   -2.31423651547543
H         4.87074062903294   -5.56905459516892   -2.95002663260245
H         6.48893722877816   -4.91422807379683   -3.36375396677120
H         4.19127269742830   -5.73736653780437   -4.97672262528448
H         5.87895726470417   -6.04008292055061   -5.30328478684671
H         4.17420934970839   -3.53445906042985   -5.83630203036705
H         5.17977199053113   -4.36499347718103   -6.96007042338424
H         6.43442913121104   -2.33289861931374   -6.30133967699709
H         7.18519709674927   -3.50193546975270   -5.31019368924306
