35
 energy: -44.226001830277 gnorm: 0.094203965066 xtb: 6.4.1 (025e99ea0bd20707e8cccc6e19fe66a0758c6dd1)
C         0.85796339908757    1.11218086499484    0.20460186907392
O         2.26931202203647    1.23208232338932    0.08462651302885
C         2.82556442502734    0.58578958717185   -0.98474528399120
C         2.04621592231568   -0.11277548714461   -1.90794190007408
C         2.65149062553425   -0.59662883773191   -3.07199572530795
C         4.04571570739395   -0.62696406191858   -3.21376919005322
C         4.77671869185997   -0.09777618239337   -2.14183982072792
C         4.21596881319256    0.51482171776859   -1.00863294133315
C         4.74793800635567   -1.18995073445456   -4.43220144965355
C         5.46781404284915   -2.51786415185551   -4.07590013978441
C         4.41271907825113   -3.57579590258172   -3.71229614706264
C         5.01649127179813   -4.97199797551415   -3.83028053835024
C         5.37627763206325   -5.34915573378572   -5.25424106101431
C         5.58488932259263   -4.08297625094509   -6.05991489695540
C         6.32523091185102   -3.04363164647816   -5.23777264363537
H         0.40610484303476    0.12422578446224    0.34100186222833
H         0.46633050319922    1.54399035341116   -0.72176525260395
H         0.47045328494653    1.67082819466329    1.06294611318526
H         0.99705936919327   -0.28323307517503   -1.68281068933194
H         2.03903706055064   -0.94828171506675   -3.90037606373098
H         5.85166322044547   -0.02702024007346   -2.27429491751852
H         4.84708432674140    1.00795939049227   -0.27528376186893
H         5.55467533905073   -0.48210511742185   -4.67164828380900
H         3.98444346566509   -1.16700212749236   -5.22163929918633
H         6.18771245210426   -2.33937108913695   -3.25945557426299
H         3.53974834994494   -3.42126882431184   -4.35583817489186
H         4.18558405541141   -3.43151459430313   -2.64569952546794
H         4.24440836805538   -5.58815997074127   -3.35194408544003
H         5.94245403739979   -4.97785023135331   -3.24052351115989
H         4.54903150343910   -5.92477705441999   -5.68901148831889
H         6.30239453482743   -5.93451068442175   -5.22845678393992
H         4.61449747860007   -3.62515677477509   -6.28039571792258
H         6.02603096662160   -4.41316332435588   -7.00932102903627
H         6.62745228187139   -2.25863591543762   -5.93830049127102
H         7.28132292956184   -3.49871588770231   -4.93902131765651
