35
 energy: -44.218283890093 gnorm: 0.101707747715 xtb: 6.4.1 (025e99ea0bd20707e8cccc6e19fe66a0758c6dd1)
C         1.11362782658575    0.93504093813614    0.67202000911018
O         2.45609609633472    0.85625668222767    0.21131689607115
C         2.88019468441620    0.43224268557670   -1.01791847611511
C         2.11766336664798    0.40444335549822   -2.18643995223972
C         2.81830778486475    0.07859440066398   -3.35194958813719
C         4.10331967323780   -0.47551580400145   -3.27077160261001
C         4.88207982005959   -0.48057076860012   -2.10589184442072
C         4.21397847474632    0.03402696123184   -0.98219071335011
C         4.76181033528381   -0.96987687367278   -4.54224497191844
C         5.20308004998800   -2.45441292678973   -4.44244554847089
C         4.07253193230416   -3.42670259825350   -4.06672412816007
C         4.59233223449501   -4.84731514675349   -3.86795531928555
C         5.99090137642440   -5.10163704730977   -4.39585918904305
C         5.88669677301594   -4.51795648787014   -5.79024007499765
C         5.67419929249260   -3.01492794601900   -5.79352379756111
H         1.16207565418827    0.98333778629955    1.76479472472515
H         0.59008441684611   -0.00233305320717    0.45936042661287
H         0.55494222540968    1.75671425647923    0.21187968021208
H         1.08294126833738    0.73433597745499   -2.15496993067477
H         2.30389832328152   -0.01128025245489   -4.30708233456151
H         5.90288710470725   -0.84362169906168   -2.04106128066499
H         4.67536209562086    0.02118938574738    0.00079094525929
H         5.56969276093314   -0.27963913058720   -4.82527001100586
H         3.99564354821821   -0.76624084036656   -5.30262875569466
H         5.95373530256527   -2.51157826472837   -3.63625448080369
H         3.35949853840270   -3.55091749054731   -4.88907252848350
H         3.64153170138122   -3.00144918215388   -3.14833744483878
H         3.90567108336379   -5.51691957091837   -4.40152795283112
H         4.47468903722322   -5.07320872538123   -2.80006636784110
H         6.14376486179831   -6.18778744061343   -4.43600223883787
H         6.81409928159386   -4.63659864511031   -3.84170915741480
H         5.05169192795543   -5.10404150804398   -6.18916620023313
H         6.82446482253800   -4.81472017357403   -6.27760426909202
H         4.91593253379594   -2.81448139293481   -6.55716508949224
H         6.56870414502376   -2.49722013763195   -6.17075802507714
