35
 energy: -44.217835397166 gnorm: 0.096953502553 xtb: 6.4.1 (025e99ea0bd20707e8cccc6e19fe66a0758c6dd1)
C         1.19716486148697    1.45363479708167    0.84062907741308
O         2.42160309157562    1.56362535684739    0.12695656070561
C         2.74910634906563    0.84675970469961   -0.99085930248364
C         1.95483770311748   -0.05405111334949   -1.70173651002713
C         2.50981949678636   -0.77756076569371   -2.76193546149069
C         3.82658135991645   -0.60964011356228   -3.21229571492980
C         4.63590946195611    0.18832822690653   -2.39273955968407
C         4.11498849679039    0.83817401160109   -1.26127314994434
C         4.36212355888651   -1.38436142747092   -4.39873945234923
C         4.94878196836485   -2.77794552310654   -4.04905182275686
C         4.07755531554780   -3.98201440007197   -4.44381135155142
C         4.86810439048188   -5.28692943541992   -4.43542610428221
C         5.86866273262593   -5.35285683680507   -5.57292087327184
C         6.36256187129995   -3.95829374096799   -5.90017774501757
C         6.31962462410963   -3.04001968230857   -4.69220841520525
H         1.02714092224950    0.40381865169305    1.10104081498680
H         0.44421325122237    2.06825641496868    0.33734393204405
H         1.36224666360058    1.97520001689429    1.78916662938542
H         0.94306370227255   -0.34335277639720   -1.43139000721856
H         1.92791585954792   -1.61349253077294   -3.14609602816635
H         5.68368201797109    0.08520828081249   -2.65654902990611
H         4.87107520149524    1.29388811226778   -0.62885704725718
H         5.18216993127721   -0.79287252073575   -4.83102424302179
H         3.53918436691019   -1.48943459042031   -5.11873485623174
H         5.05848334168021   -2.88511088329907   -2.95672567549891
H         3.71563482604702   -3.73655353821548   -5.44823425808069
H         3.14620482629096   -4.05836849842637   -3.86347344872358
H         4.14105130437189   -6.10543292073205   -4.51300980078852
H         5.37422441212272   -5.35180617450669   -3.46337251811943
H         5.44824723469301   -5.84001887631352   -6.46209202776092
H         6.63954001544054   -6.08688235669422   -5.31224384166998
H         5.61295732401816   -3.56062135809737   -6.59286850886918
H         7.27660513771268   -3.90787790728416   -6.50597028905625
H         6.75405441246645   -2.11057322470271   -5.07390903200609
H         7.02766905426079   -3.41185468694117   -3.93664387058567
