35
 energy: -44.218837625129 gnorm: 0.102604124058 xtb: 6.4.1 (025e99ea0bd20707e8cccc6e19fe66a0758c6dd1)
C         1.03739041158279    0.89165631271622    0.60088581437676
O         2.22557041942862    1.39111899064128    0.00135210140071
C         2.80974053728110    0.70561652677909   -1.02796743026378
C         2.17136491973912   -0.25383370260933   -1.81511484849258
C         2.65986467833238   -0.79770419992332   -3.00719945354839
C         3.99844895396123   -0.53061915360480   -3.32616850336187
C         4.69473386915433    0.42596656520380   -2.57545627938875
C         4.09055273500565    1.03565581362707   -1.46319793731714
C         4.67544887428139   -1.26959680209936   -4.46205163286835
C         5.22198036635940   -2.62376644304937   -3.93664312982377
C         4.17385722133464   -3.73884579983584   -3.78601531896466
C         4.87668193667339   -5.06600427728206   -4.05532778184813
C         5.26528567816483   -5.23704083603604   -5.51103771099035
C         6.02042160479574   -3.98552390069128   -5.91018022143872
C         6.43858672890178   -3.17272300106758   -4.69825885909528
H         1.09917028671140   -0.14723785808623    0.94106003702444
H         0.16839553925440    0.97592424711642   -0.05921919681393
H         0.91419843680116    1.57682993595218    1.44608792790801
H         1.21219867422813   -0.67723546666381   -1.53015802887480
H         2.11200590907057   -1.38010591922942   -3.74586859993418
H         5.62621667247697    0.75166105590701   -3.02747329359607
H         4.68013069112826    1.79637816608029   -0.96021491949147
H         5.58470787400044   -0.71852406263004   -4.74271555428744
H         4.01391488429092   -1.50486112850905   -5.30685110450010
H         5.59262608179228   -2.47167302820411   -2.90893472206651
H         3.32583629962470   -3.53564772952481   -4.44909443326380
H         3.80349135062345   -3.81752544902436   -2.75321601545127
H         4.15353650288011   -5.85102474494994   -3.79963866641776
H         5.74341771749927   -5.24725503460500   -3.40635020727653
H         4.46740179884138   -5.47499477751432   -6.22620246361486
H         5.96872136288108   -6.07738216928653   -5.51260174354228
H         5.33632072398366   -3.29714987759071   -6.41813493003621
H         6.91951289044360   -4.27764259053469   -6.46812554960221
H         7.09052714041437   -2.39559021643821   -5.10976056692132
H         7.13061689508317   -3.84561666886594   -4.17026801678086
