35
 energy: -44.217416123798 gnorm: 0.091392770862 xtb: 6.4.1 (025e99ea0bd20707e8cccc6e19fe66a0758c6dd1)
C         1.16011488270503    1.39188606637115    0.68041280258181
O         2.38978987087041    1.52191171753816   -0.02077770284154
C         2.78114925777196    0.61930649361890   -0.97094016733438
C         2.09044339575296   -0.40117497781695   -1.62608306223470
C         2.67555005383120   -0.97251008921043   -2.76041953022776
C         3.93057047001896   -0.61378554689518   -3.27142243638064
C         4.66313895090411    0.30389179678728   -2.50679869413566
C         4.09488686345868    0.87436021892442   -1.35548214484929
C         4.57515383186946   -1.27936199226881   -4.46982453991234
C         5.07986710414793   -2.70182842308670   -4.10874290888585
C         4.00801668526074   -3.73474288644090   -4.49458902844044
C         4.55463977419479   -5.14362341564268   -4.28458840968702
C         5.78449408023167   -5.36975678367503   -5.14230622803176
C         6.24586208611000   -4.09271423288002   -5.81472093431319
C         6.41136452482449   -2.94344196722626   -4.83694643820723
H         1.23936903480396    2.01849578144167    1.57479269912776
H         1.13043055423310    0.37183935551278    1.07615937412312
H         0.18321943846701    1.55620718617446    0.21385131354566
H         1.04938882270399   -0.61551113033748   -1.40083939624034
H         2.08653710672653   -1.68047556163216   -3.34078298643221
H         5.72676462138198    0.49485783982054   -2.60823290160327
H         4.63952037179890    1.52915971573579   -0.68175775989320
H         5.47920776278211   -0.75251993149739   -4.80795062776635
H         3.87552669241671   -1.25099219947635   -5.31621670015416
H         5.04851408717166   -2.76142447791089   -3.00776129125198
H         3.59565340541470   -3.70055461433889   -5.50893144473144
H         3.19098891185147   -3.73935043059574   -3.75805650668114
H         3.77825496429722   -5.89038249331170   -4.49470952536440
H         4.77953210380060   -5.21946882128592   -3.21270895854637
H         5.55899075542375   -6.18342725214737   -5.84358363810334
H         6.57466884545801   -5.77898306336616   -4.50265362115901
H         5.50374676093644   -3.72840465063315   -6.53334056201422
H         7.12033446857551   -4.30834729986412   -6.44225730027818
H         6.71429155928233   -2.06704881348333   -5.41872438024911
H         7.24868607313698   -3.09409636047585   -4.13933490750974
