35
 energy: -44.218484111056 gnorm: 0.103410653699 xtb: 6.4.1 (025e99ea0bd20707e8cccc6e19fe66a0758c6dd1)
C         1.27812003569100    2.01792189815246    0.38397923829868
O         2.39218902812686    1.14042495078287    0.28638434839422
C         2.84632106550710    0.46181877059796   -0.81085074037423
C         1.96048157224251    0.01289296773082   -1.79137268665456
C         2.53952581212494   -0.53176657002748   -2.94182764712891
C         3.91408076670953   -0.80547078101967   -2.96566476208572
C         4.72712765375271   -0.56225979773917   -1.85065761716861
C         4.20676025880513    0.16805857609016   -0.76911829290401
C         4.53609887737937   -1.28798402203704   -4.25985244613204
C         5.11230318041598   -2.72597421597497   -4.35312066692302
C         4.05785989587082   -3.83853157886799   -4.23057149604498
C         4.72764163036883   -5.20888518853942   -4.26751490033869
C         6.07400485898680   -5.13675107091100   -4.96138844328098
C         6.12387033092372   -4.22294227523965   -6.16899209046438
C         5.88292799280976   -2.80613884900724   -5.68024307567313
H         1.49239706038771    2.84147440863190    1.07295164293328
H         0.46620190837513    1.41979573668397    0.80945056624074
H         0.93545867534065    2.47934776022383   -0.54804819225911
H         0.90668010096109    0.24376165066124   -1.66225474064121
H         1.89039906554311   -0.94322827415628   -3.71274063923128
H         5.78224091860613   -0.81445599706514   -1.81616746757096
H         4.66555126817750    0.39802495772639    0.18791820710800
H         5.32176004119766   -0.56831389007166   -4.53191266016015
H         3.88942806632708   -1.22175914122555   -5.14534315372874
H         5.91189096684900   -2.81198910818861   -3.59816634631807
H         3.41690239968842   -3.70914236423315   -5.10951106686161
H         3.37763167164507   -3.64456049977196   -3.38813423007687
H         4.00367441044774   -5.94685317995285   -4.63609065002040
H         4.94253966092335   -5.51711555681669   -3.23597841577594
H         6.46700350345675   -6.12698835657577   -5.22536489950651
H         6.78459371787094   -4.71511176548463   -4.24147071574325
H         5.19754660738717   -4.52861182791728   -6.66735067615010
H         7.01801479410143   -4.34155609834538   -6.79464206953865
H         5.36937520940419   -2.20917980579830   -6.44063689377787
H         6.87930696427997   -2.34944602075980   -5.58470996807401
