35
 energy: -44.224522396581 gnorm: 0.097220639449 xtb: 6.4.1 (025e99ea0bd20707e8cccc6e19fe66a0758c6dd1)
C         1.12877923047043    1.07206567096358    0.51871861177131
O         2.34260507417040    1.43605019954577   -0.12534463032922
C         2.77056764027724    0.70065413928928   -1.19618903672640
C         2.11139837446189   -0.42684211444845   -1.68803993203091
C         2.72026492591078   -1.04368450074387   -2.78543676943362
C         3.96856683529190   -0.64078401957204   -3.27970090930490
C         4.60304498431371    0.49162001266583   -2.75193549884857
C         3.95764766744680    1.20067550771506   -1.72500947755312
C         4.81240995921546   -1.42082995883800   -4.26666819571016
C         5.31528955332790   -2.76940773268488   -3.68617162303301
C         4.18820322812196   -3.81402583005977   -3.74186974235036
C         4.76838790119399   -5.14513987284153   -4.21023130827867
C         5.23151346211438   -5.02237737587314   -5.64891190319681
C         6.00984962589177   -3.73968274895329   -5.86039939905384
C         6.51731167955615   -3.24062700872618   -4.51962111974137
H         1.24516753065442    0.05085001371704    0.89608938565873
H         0.31555454631998    1.04161859171200   -0.21321744353170
H         0.77623595333831    1.68762900190559    1.35286535483949
H         1.24586513469823   -0.97044663476430   -1.31950818241280
H         2.16372159666410   -1.86598670220733   -3.23158887610008
H         5.55192254374372    0.91153552011064   -3.07030450955434
H         4.36694730405266    2.11197518892559   -1.29921694578786
H         5.66799408481824   -0.86451698755410   -4.67617643265670
H         4.24185926182039   -1.61073347860586   -5.18594574968335
H         5.57332246834435   -2.60689141081584   -2.62612319023810
H         3.38029748243941   -3.48607028294410   -4.40507130761934
H         3.68201759103435   -3.84285819343339   -2.76566250924897
H         3.96577338170427   -5.87929672283951   -4.06395407413274
H         5.55981490616202   -5.46166485347775   -3.51834267895538
H         4.37104991692978   -5.12661939688319   -6.32228956467127
H         5.92817153384719   -5.84595308303225   -5.84227257827420
H         5.39928785584743   -3.00032584591165   -6.38996194565628
H         6.82208354270486   -3.99645774656190   -6.55274622191715
H         7.21657810833072   -2.45909117158768   -4.83350567983503
H         7.09461565933062   -4.03973099943688   -4.03113478941101
