35
 energy: -44.219244241801 gnorm: 0.094467543010 xtb: 6.4.1 (025e99ea0bd20707e8cccc6e19fe66a0758c6dd1)
C         1.05073031201194    0.90196244914247    0.44854305865910
O         2.39429477512148    1.24566844038200    0.13649160388431
C         2.79343982509431    0.70339968079346   -1.05401034382554
C         2.07263980420032   -0.23033831793880   -1.79983197718189
C         2.65265416318216   -0.88607758179638   -2.89028243229871
C         3.95220497755183   -0.56071468678508   -3.30282356443183
C         4.64637711170019    0.39964601738653   -2.55497991994619
C         4.04536931542637    1.11363652522617   -1.50479821032750
C         4.66950499503393   -1.30987138922439   -4.40685809425552
C         5.37337819730845   -2.59769448672984   -3.90227870571038
C         4.30685912837224   -3.69260615904845   -3.73387935776699
C         4.83344153921491   -5.10087489261655   -3.99336257987064
C         5.31056671515981   -5.22800603464755   -5.42708047674225
C         5.91443105526623   -3.94072189833615   -5.95061372391997
C         6.49047746537316   -3.07977863689483   -4.84101560057878
H         0.97711958474118   -0.18023636712849    0.59775277825160
H         0.47125205777371    1.29525267658089   -0.39259875733633
H         0.74469856962187    1.52080380527440    1.29847583236539
H         1.01441902898265   -0.46261366284003   -1.71806231136057
H         2.23112661777548   -1.74170113312842   -3.41487366696311
H         5.69550447987953    0.46469533199591   -2.82545513343625
H         4.57194244482567    1.87758094532531   -0.94052678502700
H         5.50196713165893   -0.66159425959534   -4.71661425852368
H         4.06117416086629   -1.55836077503421   -5.28711333240888
H         5.76587899034134   -2.43606804910168   -2.88418477883559
H         3.46361154395239   -3.52461394903044   -4.41271290132368
H         3.77757704152770   -3.71463463950615   -2.76981972081926
H         3.91345713108187   -5.69780442704182   -3.95003595367693
H         5.51840925115135   -5.49278340747453   -3.23015776385597
H         4.47821322070655   -5.37494595708256   -6.12729309149392
H         6.03509208745177   -6.04981960333505   -5.45321871896588
H         5.18544945791990   -3.35167552736772   -6.51760666896533
H         6.76758661408777   -4.20219960043613   -6.58995437010204
H         7.05072883240422   -2.24092367007229   -5.26614625132253
H         7.10977870510524   -3.83171275557371   -4.32961847024521
