35
 energy: -44.219465914643 gnorm: 0.100832091662 xtb: 6.4.1 (025e99ea0bd20707e8cccc6e19fe66a0758c6dd1)
C         1.85066740557468    1.72842244202148    0.97143719110470
O         2.86324562760017    1.72083335533682   -0.02621160279817
C         2.93555856271157    0.80014407097226   -1.03505705045187
C         2.05448432650549   -0.21687224408545   -1.40526676198104
C         2.27525891561445   -1.09740323395812   -2.46894744439916
C         3.42878595790375   -0.88928687201358   -3.23767787370185
C         4.38336675709133    0.06536031034522   -2.86236199496561
C         4.16925502641353    0.79446311766159   -1.68065149240093
C         3.64344035853634   -1.74130738451766   -4.47162757692953
C         4.42554746109956   -3.03951301831184   -4.13771622463562
C         4.07659691816030   -4.15918434120451   -5.13231286859612
C         4.94866649680126   -5.38898663064156   -4.89795761521955
C         6.37830298098858   -5.01793707116636   -5.24120609259756
C         6.60583329846265   -3.52042372334380   -5.28023656524414
C         5.94326308407663   -2.79912643255705   -4.12049879701840
H         2.35274399417187    1.30029914031863    1.84520254439422
H         1.01626815988980    1.11091504014028    0.62437191385480
H         1.49978920506546    2.73708154961613    1.21329883956505
H         1.11000941482545   -0.32241671686114   -0.87867695145366
H         1.47002547010342   -1.69367960335027   -2.89441976158586
H         5.30494259065176    0.18492734635747   -3.42312771979570
H         4.92932240904139    1.40483548449340   -1.20207471663146
H         4.13559428651000   -1.08183486795859   -5.20106971924244
H         2.63706699769466   -1.92224118074256   -4.87304792352524
H         3.97831757386124   -3.46253449300772   -3.22243840678212
H         4.16884091070659   -3.82364916312322   -6.17106694996379
H         3.06292141317387   -4.57856675511331   -5.05097328928482
H         4.75354437781195   -6.32906321632131   -5.42970637852436
H         4.93232678744268   -5.65403881771348   -3.83271820774929
H         6.60680391244425   -5.39211773810540   -6.24742552176748
H         7.12753797253129   -5.45661811474733   -4.57247323566029
H         6.24389876356016   -3.08945450217559   -6.21999170296383
H         7.68850953835109   -3.38385914668023   -5.16122507647464
H         6.06067187184595   -1.71104443777169   -4.14474896833325
H         6.36192413641319   -3.17743585417899   -3.17600376040288
