35
 energy: -44.215930288957 gnorm: 0.115834642863 xtb: 6.4.1 (025e99ea0bd20707e8cccc6e19fe66a0758c6dd1)
C         0.76598878667745    0.84772216670472    0.10021270106964
O         2.18155471929152    0.71911104098813    0.11775285883899
C         2.74954861928435    0.41733216697878   -1.08930121433673
C         2.00490344551795    0.12575319958915   -2.23304704737320
C         2.78050138312714   -0.33817292183659   -3.30015212427912
C         4.15726612363780   -0.59614552464730   -3.24674316302605
C         4.81722503124263   -0.30981455873535   -2.04428460814530
C         4.12670523756220    0.25736587085452   -0.96014290502763
C         4.87401962148224   -1.13359210571302   -4.46824344180450
C         5.69654380142577   -2.41970857450244   -4.18916534504133
C         4.81015665322475   -3.37489140057250   -3.37271177369062
C         5.39965195706909   -4.76546293320893   -3.58869211679938
C         4.96215774575707   -5.21479981957975   -4.96929088124450
C         5.18166286567090   -4.14838042462352   -6.02304931011537
C         6.11340730833437   -3.05941280666577   -5.52278679733944
H         0.44291173780139   -0.13798762161640   -0.25026382331852
H         0.52215002659317    1.67671566236574   -0.57157911771087
H         0.51321196314539    1.06114446555999    1.14403288304930
H         0.95241393405845    0.38110914279681   -2.31981395384332
H         2.27215503065544   -0.47551969406938   -4.25288134087370
H         5.90258692580890   -0.31299459773270   -2.03828953176540
H         4.64180498276575    0.65487695009182   -0.09068918074148
H         5.46354397512324   -0.22777953602928   -4.67114726669468
H         4.07054014528449   -1.39189145219794   -5.17135428382296
H         6.58259647627148   -2.08169299304204   -3.62582588419146
H         3.76226441685818   -3.12408348512598   -3.57049980014721
H         4.94901190478298   -2.97278024942071   -2.35828503366079
H         5.05347417261340   -5.44546449093112   -2.79981177102995
H         6.47843233793793   -4.70182009170799   -3.39520536707788
H         3.89701659340212   -5.39553160165771   -4.77561141564034
H         5.45953630245637   -6.15922276430664   -5.21764071024835
H         4.28095447498397   -3.60689785562769   -6.33190497010669
H         5.63042519333985   -4.64842458764101   -6.89113321516895
H         6.19286784998732   -2.28843814522121   -6.29581940703621
H         7.13414571469643   -3.44746807147091   -5.38872641013170
