35
 energy: -44.228011707727 gnorm: 0.092123908240 xtb: 6.4.1 (025e99ea0bd20707e8cccc6e19fe66a0758c6dd1)
C         0.91527739035336    1.13338150282535    0.39069587952917
O         2.29129570485467    0.90409835941374    0.11742273265522
C         2.75161960435557    0.38956640870189   -1.06326598985790
C         2.00542707085831   -0.20649554371005   -2.08089858711495
C         2.65567887523241   -0.66887641954641   -3.22931896705124
C         4.03960362955198   -0.53057553499369   -3.40398626705273
C         4.74134127447159   -0.02236432468472   -2.30274905115451
C         4.14230086528926    0.43407326887386   -1.11670951928852
C         4.80296229954509   -1.14681019208926   -4.55818977107046
C         5.53178061800016   -2.43764998493539   -4.09875242782276
C         4.49692131273603   -3.46835879669311   -3.61775512712114
C         5.00794921007788   -4.90096513769193   -3.73746714335378
C         5.16360138155047   -5.29461730921675   -5.19354685929567
C         5.69179075151928   -4.10513456567992   -5.96942471142288
C         6.44712522279680   -3.06532834220414   -5.16162918360792
H         0.51967971295664    0.31923512944191    1.00673525760760
H         0.22786230241600    1.15274149777366   -0.46081893840659
H         0.85165265929582    2.09394046352212    0.91250441238119
H         0.93696800253503   -0.30414484328846   -1.90964098713201
H         1.93713133721275   -0.98282342387426   -3.98436851312209
H         5.81596688248385    0.11843506371525   -2.36115994537118
H         4.65674604087041    0.95599735267488   -0.31531448600543
H         5.49228481030539   -0.33110779928303   -4.82023827063511
H         4.03175105505805   -1.28188254600612   -5.32867750926265
H         6.20911679222452   -2.01356038630968   -3.33845054952546
H         3.52615154984660   -3.32723217885905   -4.10539454023359
H         4.29101079009639   -3.30339538118177   -2.54984890649987
H         4.32552674556689   -5.54177433776536   -3.16454784243121
H         5.95321029026095   -4.89912624695443   -3.17913681775854
H         4.15791902306095   -5.51100594300870   -5.57627435981690
H         5.73450464755017   -6.23001926177016   -5.20305539431888
H         4.85789301950039   -3.57227619488907   -6.43904937593624
H         6.29788359205990   -4.42401297644298   -6.82731135053330
H         6.75021376001458   -2.28430331665946   -5.86620889515066
H         7.32882517678541   -3.48343791958139   -4.65344069309201
