35
 energy: -44.222829697704 gnorm: 0.098432324108 xtb: 6.4.1 (025e99ea0bd20707e8cccc6e19fe66a0758c6dd1)
C         0.86773334144497    1.09728720601186    0.20914241486380
O         2.27736906265396    0.93214467337614    0.12957821869883
C         2.79790155917805    0.39653420155060   -1.01621165544347
C         2.02244164011215    0.11956344662333   -2.14298509114381
C         2.75889835206606   -0.28603332545392   -3.26039979620954
C         4.14829143728321   -0.46991068379417   -3.23471913869717
C         4.86417407300330   -0.26276043105309   -2.04811112614184
C         4.17094750514081    0.18943221152280   -0.91284323056652
C         4.78074008768727   -1.04655010832270   -4.48457633023589
C         5.52921942646023   -2.38920618691692   -4.27108278600500
C         4.66092116156298   -3.39307823640826   -3.49458303849968
C         5.22904262808694   -4.80675814470683   -3.57575271811324
C         5.36095261153643   -5.43747338438777   -4.94839826905931
C         5.20473431617936   -4.33038074618325   -5.97103279889420
C         5.95851388499858   -3.07248249642729   -5.57889875313805
H         0.41649536735346    1.23203271563375    1.19760804072981
H         0.40830551913629    0.16452618288333   -0.13272708281900
H         0.57284700787234    1.92772477989432   -0.44079700983976
H         0.93977507967808    0.20812706720426   -2.16440772675280
H         2.21007670863725   -0.57790550406649   -4.15403201574146
H         5.93908712705037   -0.40971916677039   -2.01614948375242
H         4.65281438559580    0.44944314809122    0.02496869451384
H         5.47517704156128   -0.30900907411142   -4.91235648749130
H         4.10142766540845   -1.08596721536877   -5.34692404903355
H         6.39020981262196   -2.11014801358042   -3.64059304894666
H         3.68004195565248   -3.32233812533283   -3.97725753556281
H         4.57124633986984   -3.05754857516304   -2.45083305059701
H         4.55983865197400   -5.43412513243760   -2.97313337190629
H         6.23659289528610   -4.73673181889744   -3.14541167350075
H         4.71604069008176   -6.28018496569923   -5.22880367014545
H         6.34772936012273   -5.88408860287521   -5.11514435959932
H         4.15170580748599   -4.12114800495975   -6.18834228760836
H         5.76712166174630   -4.54218280625758   -6.88965231676362
H         5.92153040452950   -2.29603665143014   -6.34965123621223
H         7.01664596951724   -3.37220178321865   -5.54742165678468
