35
 energy: -44.224740690161 gnorm: 0.102493197903 xtb: 6.4.1 (025e99ea0bd20707e8cccc6e19fe66a0758c6dd1)
C         0.90373034899072    1.15253362521456    0.36596368986396
O         2.28537183782828    1.35279587228999    0.09831240818319
C         2.82564036164956    0.69076613093853   -0.96962655092622
C         2.19365498418397   -0.38717414297021   -1.59116374966629
C         2.83368797348915   -1.03645191521432   -2.65148869154846
C         4.10748564001899   -0.66767856741875   -3.10572347131768
C         4.69943887307168    0.37853935212852   -2.38568376069531
C         4.12438305511993    1.06571108362789   -1.30356534530302
C         4.87976501119878   -1.25555020637866   -4.26875348966448
C         5.40496176969858   -2.68807415840357   -3.98490553490697
C         4.27913816987790   -3.73118896540274   -3.88958735721444
C         4.85700194245241   -5.13527598261827   -4.03943565954549
C         5.44972565729318   -5.33219894215903   -5.42119458031647
C         5.59148779497977   -4.00565836942500   -6.13954912762207
C         6.28172835664082   -3.03513587601435   -5.19831864694986
H         0.66940405153919    1.90877409283772    1.12228895017484
H         0.74267710306707    0.13677821898828    0.74052290862195
H         0.23272286559719    1.40086404895331   -0.46294325608351
H         1.16182846225465   -0.62812037435203   -1.35085506486837
H         2.32962521303296   -1.80583492921776   -3.23367733047748
H         5.52253750352198    0.84723960726296   -2.91566981133089
H         4.65301058840618    1.94161381774825   -0.93936772362234
H         5.73792145428601   -0.61167340729097   -4.50999094587439
H         4.14298081916159   -1.23885587412719   -5.08332885516673
H         6.03530269295294   -2.62325039328889   -3.08204152540450
H         3.52680600464808   -3.65320177616572   -4.68206269590645
H         3.72047355342959   -3.58413817583530   -2.95347535686075
H         4.03968169062123   -5.82333318896900   -3.78816237606906
H         5.61269084071808   -5.26954888188979   -3.25447723988548
H         4.82537756428344   -6.08570152211525   -5.91831097231898
H         6.44260872569697   -5.74851652179942   -5.21659582589900
H         4.55393934963192   -3.74927568089542   -6.37961565253357
H         6.08999058276370   -4.16719313709150   -7.10412309922972
H         6.50176448450313   -2.13310984782310   -5.77817075627498
H         7.26919472981754   -3.46768724132654   -4.97860190427554
