35
 energy: -44.220613568125 gnorm: 0.104807549646 xtb: 6.4.1 (025e99ea0bd20707e8cccc6e19fe66a0758c6dd1)
C         0.96923114992819    1.03263181539029    0.47359579971477
O         2.35589798124832    1.12871497792080    0.17594080080732
C         2.80506359000012    0.61089141967047   -1.00760306476060
C         2.14768766359843   -0.36670506973070   -1.75582176986667
C         2.68904042952527   -0.92684827897654   -2.91714412106587
C         4.00867687986295   -0.58539499081775   -3.24402762058171
C         4.66432070459796    0.45298086318876   -2.56923541690505
C         4.10047088142678    0.95539007911852   -1.38452751894076
C         4.66900259126540   -1.20208665602451   -4.45988479996072
C         5.37785718070136   -2.51898497051139   -4.04536075600594
C         4.29292237493558   -3.58822308243019   -3.83488708788365
C         4.78435727500222   -5.02877128131463   -3.94049973469230
C         5.19653945890514   -5.21448199536489   -5.38790263198791
C         5.99391219543899   -4.06712757760791   -5.97408878577392
C         6.50076114427512   -3.10271720746483   -4.91707528615163
H         0.60502508716145    0.06602640583355    0.83672701321481
H         0.27151301016369    1.26110592903643   -0.33818050853239
H         0.81145374938355    1.79827154179398    1.24034730485890
H         1.17148470643542   -0.69844139126882   -1.41311471301265
H         2.31038244667046   -1.74221746344741   -3.53095543088221
H         5.65800946635392    0.78646106661367   -2.85106885682486
H         4.63105987808883    1.63750361282785   -0.72688853956411
H         5.51560123521426   -0.65846358940472   -4.90367531258283
H         4.04607912424407   -1.49277047230819   -5.31669979654154
H         5.78989367747698   -2.23918068596480   -3.06117037167296
H         3.45305599812515   -3.56964425451290   -4.53801022617348
H         3.80163765197208   -3.48778845609702   -2.85581202758473
H         3.98183294596142   -5.76807280999206   -3.82234167635450
H         5.58095954961870   -5.27730059525941   -3.22711860335274
H         4.30018555128308   -5.32151166164357   -6.01223884682200
H         5.80505099821494   -6.12590180859196   -5.39294196768394
H         5.39785230091480   -3.49640378149769   -6.69440659469680
H         6.75584830246552   -4.54048963564771   -6.60684718142837
H         7.05492857646513   -2.27463531078055   -5.37036785039041
H         7.28317184556849   -3.62777151261241   -4.34908106185301
