35
 energy: -44.222554396904 gnorm: 0.084254777298 xtb: 6.4.1 (025e99ea0bd20707e8cccc6e19fe66a0758c6dd1)
C         1.10011498227276    1.79730015293774    0.44330867756191
O         2.41060413982172    1.26044117834136    0.32052438990491
C         2.79181632784554    0.63350122538413   -0.83372455196107
C         1.96406053254367   -0.10559332532496   -1.68002758063996
C         2.44809023370540   -0.85607287491901   -2.75612633144507
C         3.79070733438881   -0.73871329455728   -3.14146975274240
C         4.59208949330209    0.09948575851062   -2.35492876869480
C         4.13108227338204    0.74817589816450   -1.19710845357993
C         4.38865491144360   -1.50839197349835   -4.30108207140659
C         5.14981449809950   -2.79572346185202   -3.88642572928807
C         4.29690755801822   -4.07080619790981   -3.99303996131078
C         5.04317378897479   -5.31451068024521   -4.46646078390337
C         5.49918636103453   -5.15510917802959   -5.90381998150284
C         6.21576981867917   -3.82680235557781   -6.03779303843439
C         6.39357791136418   -3.03002099258939   -4.75803349204032
H         0.37486618930858    1.18002403864558   -0.09689567393310
H         1.12338611587026    2.75662318108474   -0.08314130426072
H         0.85641918384234    1.83197217726745    1.51027445775160
H         0.90482292013500   -0.23941494985076   -1.47859080145344
H         1.72920027575133   -1.52781525632947   -3.22188645620962
H         5.66298879088273    0.14269569682267   -2.52628828058999
H         4.84310480960738    1.14347535371116   -0.47873889057175
H         5.20239807902827   -0.85297582527174   -4.64380215901402
H         3.64403238385190   -1.74875904170318   -5.07207080307197
H         5.54940296723791   -2.66243148341728   -2.86698592156471
H         3.47965512140900   -3.90498552894730   -4.70346575599552
H         3.97593174531336   -4.30721087912567   -2.96779700484865
H         4.37201919040964   -6.17475542555427   -4.34770111751059
H         5.93649960714223   -5.40452692550929   -3.83470078167853
H         4.54308995056400   -5.14403514164421   -6.44276191285152
H         6.17797053031182   -5.94269464281298   -6.25017088823287
H         5.69175434524719   -3.17350496357802   -6.74382497532685
H         7.21597682213060   -3.84473239861095   -6.48975091345759
H         6.87061160072318   -2.06664320000463   -4.96452176266366
H         7.03753108718931   -3.63537160588387   -4.10279238300234
