35
 energy: -44.224262416296 gnorm: 0.094601972756 xtb: 6.4.1 (025e99ea0bd20707e8cccc6e19fe66a0758c6dd1)
C         0.85291846396542    1.24967418373332    0.39352637882600
O         2.25418614298673    1.33545037496413    0.17044184435702
C         2.86240717866932    0.64277485804115   -0.83997137272876
C         2.21820770343881   -0.31389624191943   -1.62575549596551
C         2.85734472016764   -1.01617301527730   -2.65230507958194
C         4.16448286022139   -0.66357146284124   -3.01554817862055
C         4.74169155253987    0.43738149970042   -2.36888718103699
C         4.10573395092267    1.07725248043248   -1.29185537986331
C         4.87674942609591   -1.30539826295335   -4.18831499526076
C         5.47554652713326   -2.73087136426168   -4.05417097781352
C         4.40725651239597   -3.76899496272401   -3.67245294157014
C         4.84315734074270   -5.16913298867672   -4.09369559850102
C         5.07135555995503   -5.23820505540083   -5.59119764783094
C         5.63967544870657   -4.03149697586811   -6.31002152075576
C         6.30304822551022   -3.12742735107645   -5.28686199079523
H         0.63652757181069    2.15157834297807    0.97540284929419
H         0.54369032741066    0.35405587428604    0.94146579324163
H         0.22766399912536    1.30652417810286   -0.50359718954944
H         1.27223641511424   -0.72151329957710   -1.28013143943969
H         2.41591934736373   -1.84889194570500   -3.19700309210603
H         5.69802023080220    0.83575245364902   -2.69260393250504
H         4.57345313965056    1.91412947814382   -0.78178849093917
H         5.61541925601952   -0.54210572900874   -4.47284392805143
H         4.14420501426947   -1.28632150992610   -5.00665320780181
H         6.16886615343517   -2.57587139551146   -3.21038301679688
H         3.41849828278785   -3.64297637145381   -4.12696292433149
H         4.29068455684420   -3.69199328956870   -2.58134456666424
H         4.12538113085890   -5.92052012555092   -3.74044206763108
H         5.80440701097381   -5.43681075221562   -3.63587213031237
H         4.19751130966267   -5.60843589852155   -6.14258384109912
H         5.85585587127094   -5.97845436064240   -5.78507387500857
H         4.89137416917057   -3.38967810482204   -6.78749877227816
H         6.23960215376995   -4.34299149012963   -7.17492646967986
H         6.65940715601077   -2.28899691304466   -5.89377057426416
H         7.19334961874103   -3.65760489446370   -4.91707669113677
