35
 energy: -44.217992390850 gnorm: 0.105003029496 xtb: 6.4.1 (025e99ea0bd20707e8cccc6e19fe66a0758c6dd1)
C         2.76279872217109    1.44833554447058    0.98751165069745
O         3.17050629057479    1.76539659217824   -0.33684562949892
C         3.18618303039649    0.80805479772547   -1.31353288722521
C         2.47742041108326   -0.39347848800072   -1.27300458055387
C         2.51756344060119   -1.26305124342326   -2.36741062816509
C         3.27283814927224   -0.95587176121492   -3.50762306129759
C         3.96492556292200    0.26249443850063   -3.51366938065354
C         3.90610773666750    1.17541354036253   -2.44737034954078
C         3.44127862031232   -1.90937331132841   -4.67257366424498
C         3.74981768420658   -3.39439755995520   -4.34389026286733
C         4.08865669589031   -4.36031824176286   -5.49142596032031
C         5.39455563302390   -5.10527505590051   -5.23160157986313
C         6.56559541407606   -4.19644086683551   -4.91215829240057
C         6.18581617673991   -3.08559584819154   -3.95422785439814
C         4.87330911846166   -3.47498339435987   -3.29851197016759
H         3.53924691730662    0.85831877670649    1.48535175439741
H         1.84987849377132    0.85670377178521    1.10809481754223
H         2.61379765829893    2.36115213118170    1.57366037713857
H         1.75732126499724   -0.71487770206018   -0.52558964567628
H         2.08534023026881   -2.26149605129144   -2.40296567828366
H         4.67215836615564    0.48835072148822   -4.30541883203659
H         4.57500697940494    2.03002975785184   -2.48606791080854
H         4.34376407806182   -1.50774314166788   -5.15570773892211
H         2.64100497786893   -1.81549330836604   -5.41917349019601
H         2.85299371891473   -3.74105268357693   -3.80330519146346
H         4.27554504771464   -3.85216495260055   -6.44376824377746
H         3.25626743671788   -5.04891848865418   -5.69877489717310
H         5.71196013342814   -5.62408096232336   -6.14520334711658
H         5.39603635060891   -5.81599164208988   -4.39486124863528
H         6.96358016249343   -3.76450312984512   -5.83937958051133
H         7.46540139404071   -4.69498221784057   -4.53426481100755
H         6.06471512355446   -2.05571822334181   -4.30715477057358
H         6.90121147458568   -3.07805940206488   -3.12166901089180
H         4.59456587816511   -2.77625079889966   -2.50329483870533
H         4.85071572358885   -4.47355524773444   -2.83719888829778
