35
 energy: -44.221496284182 gnorm: 0.097052651316 xtb: 6.4.1 (025e99ea0bd20707e8cccc6e19fe66a0758c6dd1)
C         0.83878568296043    0.82201031742564    0.20257220836189
O         2.22886232612309    0.52946946785902    0.14982602283391
C         2.76661860070381    0.27849195747770   -1.08244649704267
C         2.09304840816201   -0.11947384286204   -2.23812624525005
C         2.81318227155199   -0.45312171593312   -3.38946423722558
C         4.21437905372525   -0.41472580936153   -3.38192273875043
C         4.92112881042844   -0.14506957793427   -2.20241942094098
C         4.15886825531668    0.28470776692827   -1.10327213964524
C         5.00484656227154   -0.95109983906569   -4.55755506755864
C         5.62935060252275   -2.32156714889160   -4.18293492725146
C         4.66894350791399   -3.24837104319369   -3.41919047107775
C         5.08210490340555   -4.71606661726969   -3.47404272526981
C         4.98076345692240   -5.20386066431933   -4.90622450462283
C         5.23510817070575   -4.06688679634381   -5.87495503519159
C         6.19658410273683   -2.96960987141805   -5.45566021441829
H         0.34379341987579   -0.11106375633834    0.49100207937964
H         0.35724724530958    1.22828856729647   -0.69244204681382
H         0.74324945271437    1.51342480858231    1.04626919241962
H         1.02436471774441   -0.25004006407364   -2.09205445685765
H         2.21978599655995   -0.79143619450436   -4.23704743851536
H         5.93873114137553   -0.49495298733073   -2.06056176434002
H         4.54917840745441    0.44350728666748   -0.10240586723742
H         5.80880727011442   -0.32073662411685   -4.96436549326449
H         4.24536941807714   -1.03629587091800   -5.34660435938352
H         6.47827584016523   -2.02986891744724   -3.54189412463729
H         3.72882705027083   -3.11911782618534   -3.96652721013060
H         4.50291731747736   -2.99601418670013   -2.36146314910739
H         4.51674079972579   -5.29936661927572   -2.73600619903853
H         6.15987798652604   -4.80141906121220   -3.28332097747124
H         3.93024007890880   -5.49188196105312   -5.04093067338782
H         5.62846500231290   -6.05595300209248   -5.14163716513365
H         4.28612192105547   -3.59218127505261   -6.14689356306551
H         5.64556524909588   -4.50080000870723   -6.79595762465461
H         6.22796415239451   -2.21490010901797   -6.24795043279336
H         7.18493677248850   -3.42880809123905   -5.30478952148591
