35
 energy: -44.216262246979 gnorm: 0.104050961284 xtb: 6.4.1 (025e99ea0bd20707e8cccc6e19fe66a0758c6dd1)
C         0.76774182603339    1.02068992952334    0.25790738002695
O         2.14682588939343    1.16875560891775   -0.05334665447974
C         2.66561545733022    0.38562023296228   -1.04744093025709
C         2.04138163274991    0.20988079837114   -2.28320669285284
C         2.78351299876203   -0.22254771363644   -3.38671901824759
C         4.08174526670265   -0.72506574553947   -3.22254799108438
C         4.74551791730731   -0.51416985552295   -2.00666702145456
C         3.97758302328309   -0.06310009081164   -0.92007303050114
C         4.75884699566206   -1.17027442329399   -4.50237993505723
C         5.72089416876175   -2.33784702801745   -4.15630821763678
C         4.96984195762272   -3.39687087048532   -3.33226821958744
C         5.52479692121361   -4.78513010134224   -3.63657514453960
C         5.15506277493923   -5.22535275783849   -5.03973530790391
C         5.17191030759250   -4.04521738272909   -5.98991229548009
C         6.16030024904535   -3.02207698790871   -5.46026163887117
H         0.37163190438376    0.00003345962714    0.27182329187088
H         0.13270813951543    1.47618484508017   -0.50841396146494
H         0.70957323056278    1.56672293229453    1.20525638888959
H         1.03012519115324    0.60495956509653   -2.32494995615548
H         2.32676025660946   -0.37775523077247   -4.36255745761371
H         5.70234230972267   -0.98459161640552   -1.80357361422820
H         4.44382165695857    0.16975834545016    0.03265519067023
H         5.35488114281199   -0.49250902627801   -5.13053809656544
H         3.88865724281976   -1.50018395227892   -5.08598268840181
H         6.61399764374644   -1.92848424248045   -3.65482689651834
H         3.89321293575968   -3.35697427375532   -3.53071484592432
H         5.09204055957855   -3.26858061904170   -2.24661409401246
H         4.99531682939431   -5.43812706773485   -2.93101212727288
H         6.59519132830059   -4.86592681535555   -3.40639619783047
H         4.13779809047629   -5.63589025223551   -5.00322620894824
H         5.81578485907685   -5.98024996304025   -5.48084107972689
H         4.14131651503468   -3.68122435344629   -6.06241267743826
H         5.46068943657018   -4.37263894162156   -6.99708814683189
H         6.26700937393823   -2.26632054073330   -6.24495309209063
H         7.11282874161731   -3.57262054237471   -5.46782698590075
