35
 energy: -44.222367287337 gnorm: 0.094411514139 xtb: 6.4.1 (025e99ea0bd20707e8cccc6e19fe66a0758c6dd1)
C         0.79099166284869    1.29911279589036    0.14705002282634
O         2.06741795896637    0.67437520475148    0.18043016613956
C         2.66286990529819    0.33723936563811   -1.00381790065608
C         1.98820837009975    0.09214042548668   -2.20065856336955
C         2.71840383781193   -0.42685094238978   -3.27441616259317
C         4.10375910247457   -0.64056513257404   -3.27516316856803
C         4.73879226939696   -0.19919448811487   -2.10667586525624
C         4.04922766410527    0.21680584641626   -0.95545094267292
C         4.80926903021544   -1.20715533695665   -4.49002061088062
C         5.69932293495191   -2.42428201588951   -4.12268851608892
C         4.90336645992011   -3.50658130761883   -3.37453454049826
C         5.52369012754106   -4.86818492141252   -3.67298981977749
C         5.15955381750881   -5.27131117636868   -5.08870580151875
C         5.22682057638984   -4.06248829745305   -5.99978323034815
C         6.15959124343790   -2.98479516023306   -5.47750251342801
H         0.04407085991487    0.62802439971966   -0.28951158309568
H         0.97766873756834    2.26774425188303   -0.32718259490125
H         0.53187380485062    1.31018494478205    1.21088324055546
H         0.91349437476435    0.25089336425944   -2.21667921815353
H         2.15167820246239   -0.69545898723443   -4.16416043705559
H         5.80068854877250   -0.41485802176952   -2.04404979546706
H         4.54090277193396    0.55947382506350   -0.04984240300841
H         5.25207224915197   -0.38862797568497   -5.07580520341497
H         3.96759281860029   -1.48365572120016   -5.13947528199941
H         6.62430768854032   -2.20867735195928   -3.56178473366714
H         3.90533426100303   -3.46730583023957   -3.82452567410386
H         4.79272142108162   -3.24331343830635   -2.31223351387936
H         5.11565470992286   -5.66845294260546   -3.04239361872130
H         6.59849356643454   -4.76944948609449   -3.47223244127553
H         4.12242902741811   -5.62759287292012   -5.04247908238947
H         5.73729842066591   -6.15730607467351   -5.37544955189226
H         4.23254246213597   -3.60497969686117   -5.95542436650928
H         5.57341344715578   -4.40725807229802   -6.98264061707212
H         6.31649263489037   -2.18828501197978   -6.21183817174381
H         7.17720630818190   -3.35478299395944   -5.28247801620890
