35
 energy: -44.212328363601 gnorm: 0.116363072123 xtb: 6.4.1 (025e99ea0bd20707e8cccc6e19fe66a0758c6dd1)
C         0.89296866301679    1.03455642857668    0.43726330642388
O         2.21602335729021    1.29724554343544   -0.01128555304055
C         2.78679274536776    0.60013739420753   -1.04032860632655
C         2.04337359655281   -0.14446047210833   -1.95715531778290
C         2.68058087864735   -0.75373178990831   -3.04262672874162
C         4.07537685315964   -0.63977519332220   -3.12288632611091
C         4.77772460710489    0.19336456217083   -2.24196435159671
C         4.14754332544009    0.86107976645787   -1.17852540061379
C         4.78863723700856   -1.27006575587806   -4.30129235072771
C         5.54695346235086   -2.57767488933830   -3.94966608304868
C         4.48303344101299   -3.65396433546270   -3.67703435900598
C         4.97458710649360   -5.07616674335674   -3.92913892309865
C         5.40332187488407   -5.34289432027611   -5.35896432062080
C         5.52344380291635   -4.01583252336827   -6.08029459150131
C         6.31479658622157   -3.08351189227053   -5.18096163125192
H         1.01140149002268   -0.04435654468987    0.58133558402063
H         0.15480911433047    1.26300881550896   -0.33792814618148
H         0.71620295808056    1.73136160288816    1.26323074117130
H         0.98978668625139   -0.40611879839344   -1.91289627355868
H         2.03098710378186   -1.16916001540383   -3.81101492088522
H         5.80851783340832    0.45279862348587   -2.46154527646634
H         4.64917952436654    1.47376819406410   -0.43537898985755
H         5.44630896998172   -0.44990587165811   -4.62379969148835
H         4.04294279631177   -1.44015576563530   -5.08975405651393
H         6.15141515879286   -2.56346731967608   -3.02710474578064
H         3.74996494644140   -3.60088702305506   -4.48937433386857
H         4.04177592441929   -3.41260556509104   -2.69873301716527
H         4.14736200058434   -5.72362036099157   -3.61121469662813
H         5.75579684895579   -5.40259310120277   -3.23027426250370
H         4.59973488661590   -5.83474301372337   -5.92202222329432
H         6.31752570100856   -5.94299986350711   -5.43039586531433
H         4.54058286186001   -3.57375909949893   -6.27632074838698
H         6.00426584909642   -4.11401618705289   -7.06221698444762
H         6.63010434645809   -2.18032650659823   -5.71306359278079
H         7.27732455540563   -3.54820825868490   -4.92007245128031
