35
 energy: -44.227542687573 gnorm: 0.078259017157 xtb: 6.4.1 (025e99ea0bd20707e8cccc6e19fe66a0758c6dd1)
C         0.75811073577258    0.91908419969775    0.13983799801779
O         2.16956759267634    0.75114809544025    0.15603631337611
C         2.75767827516608    0.25484046514609   -0.97465888611402
C         2.11115093814527    0.01109540808905   -2.18720166665332
C         2.83673383082428   -0.22937818006057   -3.35818192094081
C         4.22303911488767   -0.43288269544074   -3.31784473369839
C         4.87603131648586   -0.04993131323474   -2.13869794256009
C         4.15005171292654    0.26563618575133   -0.97798901947263
C         4.85925644783970   -1.09348693406588   -4.52344701181652
C         5.59038066485340   -2.41786734933049   -4.17703676140461
C         4.68858250191284   -3.37779635404748   -3.38334336340660
C         5.23868977529323   -4.78842799326240   -3.57133743388452
C         4.99364500238749   -5.26497608086243   -4.98986228335114
C         5.31076735995092   -4.20431344252596   -6.02439977764339
C         6.15853409940010   -3.09089099033946   -5.43631580611173
H         0.38721977719335   -0.03598852506207   -0.24631267869591
H         0.44212178156093    1.69925833445242   -0.55978411512099
H         0.41321762892639    1.13037456367959    1.15738942010183
H         1.03488061774742    0.15976630266286   -2.19011569457647
H         2.31009064010777   -0.44337527616160   -4.28652738037217
H         5.95994302709160   -0.05294477588583   -2.08228158263106
H         4.47353390509997    0.47676530527853    0.03693775117906
H         5.58564542216466   -0.42381906526467   -5.00626097055039
H         4.09386502345450   -1.28341332739823   -5.28814734361434
H         6.41384466202930   -2.05527600337679   -3.53896953686748
H         3.65880589736007   -3.28205115429654   -3.74458545880350
H         4.72130995310702   -3.07105516951853   -2.32746717472521
H         4.84138382912963   -5.52044559894505   -2.85658461958854
H         6.32258104885797   -4.70645720323892   -3.41734022749485
H         3.91741616469243   -5.47813105142668   -4.95827377326868
H         5.59016107439859   -6.17183505769418   -5.14076999102290
H         4.34599036656855   -3.80463620128405   -6.35505707969626
H         5.93820971859646   -4.60136058938871   -6.83289907111424
H         6.36867578549596   -2.36901224393057   -6.23194566156904
H         7.09205191442843   -3.57796695833020   -5.11730568083474
