35
 energy: -44.212407871615 gnorm: 0.107215705117 xtb: 6.4.1 (025e99ea0bd20707e8cccc6e19fe66a0758c6dd1)
C         1.09909913509952   -0.00878004216793    0.30462448906369
O         2.39241145032299    0.57669264813583    0.23223410532735
C         3.02079815516026    0.28875771670624   -0.94797379508384
C         2.33156838545007    0.22991566054445   -2.16006668593231
C         2.94354145334781   -0.23292424309919   -3.32915223466367
C         4.33799999208134   -0.26059540389730   -3.46916368051602
C         5.04575176159114    0.05594553683628   -2.30197602889818
C         4.40109585185340    0.39171254532968   -1.09966420927998
C         5.09219383979365   -0.88009943430208   -4.62763410018758
C         5.31435244106531   -2.38646661809687   -4.32758469304083
C         3.93090152659739   -3.02463061778501   -4.11910658660115
C         4.06137612845654   -4.47521753654291   -3.66455694360361
C         5.34294106468559   -5.08239515814723   -4.20147818588873
C         5.81660778800912   -4.58407865881072   -5.55172266454715
C         5.86299380395817   -3.06732455980462   -5.59129668053289
H         0.75688168882897   -0.17140428613826    1.33189121732233
H         1.00818998361349   -1.01330246910673   -0.12041906334791
H         0.38561206894255    0.68469548053886   -0.15257751853675
H         1.25713385627738    0.37935551646069   -2.22111990112325
H         2.39878729992743   -0.22982696460576   -4.27159927399568
H         6.12690772412153    0.13701056881293   -2.25111608649295
H         5.01987493316140    0.87990924981039   -0.35262404672787
H         6.01516981955407   -0.31807220317427   -4.83121713134150
H         4.50687184223334   -0.82365695541954   -5.55546763807747
H         5.90733871062175   -2.51038562531456   -3.40578938704996
H         3.50573778685391   -2.96936067569757   -5.12721564929263
H         3.36849770077124   -2.38258515895529   -3.42519352686024
H         3.15273441827994   -4.99553113126300   -3.99352104885807
H         4.03386386185466   -4.47868089681718   -2.56706629499271
H         5.18479588192521   -6.16688831601263   -4.26119483847531
H         6.14116424677084   -4.91306595439904   -3.46992836717242
H         5.07392559404609   -4.85365492363753   -6.31042062335408
H         6.77470621432835   -5.10766714652542   -5.66531825811201
H         5.35586495918325   -2.51482238485144   -6.38870310419791
H         6.89970835523890   -2.73645935419902   -5.75321371480192
