35
 energy: -44.221079568969 gnorm: 0.087132424902 xtb: 6.4.1 (025e99ea0bd20707e8cccc6e19fe66a0758c6dd1)
C         0.92839905302991    1.16320133829312    0.20810992791088
O         2.26661719835135    1.44515122421320   -0.17964237018417
C         2.75218989873731    0.53417297190875   -1.07686300078122
C         2.04799723576435   -0.32546333368941   -1.92114219894205
C         2.70927262506156   -0.95320183118487   -2.98140258268693
C         4.08229891840365   -0.78647753694352   -3.20918609884262
C         4.78074475746006    0.06544937392896   -2.34325786513361
C         4.10156132151049    0.76474941480113   -1.33154458133074
C         4.84792637997271   -1.51370259223733   -4.29528261347895
C         5.52540838379998   -2.74610490871164   -3.63898325046430
C         4.43237199060562   -3.80301119024048   -3.40904108517860
C         4.57052890478491   -5.00681261844766   -4.33619597889878
C         4.83051351197080   -4.57558940048016   -5.76651493319958
C         6.05495210090737   -3.69221937870543   -5.89397942924682
C         6.63772067713095   -3.28282317047896   -4.55344360514363
H         1.10917813145569    0.33265863144670    0.89829403181071
H         0.31837003181170    0.78819487656708   -0.61967419272106
H         0.49484830644285    2.06414777304890    0.65457945971239
H         0.96594282242514   -0.42217669822445   -1.93769817321440
H         2.23518005891601   -1.63459696902603   -3.68561136385139
H         5.84637285745601    0.24264396157567   -2.44859220754586
H         4.53766779992233    1.50274365022761   -0.66486007005706
H         5.52982664847704   -0.91871822942572   -4.91995128296297
H         4.22444156894384   -1.93064438000420   -5.09783411062576
H         6.00295143861167   -2.40231490520693   -2.70600078035430
H         3.45471769372393   -3.31379233349394   -3.47946721381683
H         4.57673853233778   -4.16823795557668   -2.38151810206168
H         3.65323576365660   -5.60935335600679   -4.34575262789001
H         5.36255193055149   -5.57361915979554   -3.82955555863754
H         3.91430863789131   -4.10093041784612   -6.14063906483314
H         4.99397093651880   -5.48425398953467   -6.35694536946446
H         5.70745168695409   -2.78878128343988   -6.40673070156172
H         6.84065637611168   -4.18494708504165   -6.48125249868508
H         7.35166257561867   -2.46860781744927   -4.71355496636844
H         7.15566155539259   -4.13954641410644   -4.09712299291377
