35
 energy: -44.220271522797 gnorm: 0.095102553240 xtb: 6.4.1 (025e99ea0bd20707e8cccc6e19fe66a0758c6dd1)
C         0.84169812315665    1.38431903595532    0.17620074316120
O         2.09162121715595    0.70805772161436    0.20842287429765
C         2.63517337197320    0.32101520259971   -0.98548507523019
C         1.96011428822800   -0.01684237589848   -2.15928944862906
C         2.64587788795737   -0.58628485776561   -3.23676630122637
C         4.03613936407705   -0.76423053522793   -3.21697064313268
C         4.75591862638812   -0.20189832060379   -2.15436157347619
C         4.02303138753053    0.21837218979071   -1.03180938146246
C         4.78755437040928   -1.18653942440640   -4.46263432414377
C         5.68184972605676   -2.42623416284335   -4.19445725644829
C         4.87335052497863   -3.43859144530191   -3.36613690341015
C         5.34417549312095   -4.87004777391464   -3.60508885058190
C         5.23303468007449   -5.24748768761424   -5.06951522300728
C         5.22412661653644   -4.04706421568085   -5.99403876756905
C         6.22240481814134   -3.01174618086615   -5.50842785293777
H         0.05863510822982    0.79456382150257   -0.31148507315466
H         1.01818387969576    2.35061980260233   -0.30661123644259
H         0.57929073783868    1.33205081962206    1.23799929668094
H         0.87650041535061    0.05441478644984   -2.19353428281432
H         2.05083891978188   -0.85496395560679   -4.10780778070790
H         5.84108255211413   -0.20448848828109   -2.17601855398817
H         4.59490695698856    0.49674355744811   -0.15160469403509
H         5.50650116579143   -0.41361705888350   -4.77071198729531
H         4.12925762272774   -1.15793244286421   -5.34154825359498
H         6.60647060751628   -2.18999542747753   -3.64131830022549
H         3.86158187642272   -3.28559395911925   -3.75731310869283
H         4.85731881713046   -3.21632866593305   -2.28892847145798
H         4.84532646085399   -5.71483476770063   -3.11309499557057
H         6.39108626436060   -4.77506340765065   -3.28852850764625
H         4.35778094756502   -5.87885861239538   -5.26952283648301
H         6.07619947163267   -5.87640775889640   -5.37697325726948
H         4.27368676523879   -3.51201235041289   -6.09530271381882
H         5.52159248281760   -4.40588945343459   -6.98789990738400
H         6.41376343542914   -2.23641148293312   -6.25711557524671
H         7.22809867647313   -3.42234342054914   -5.33391212706645
