35
 energy: -44.224109609854 gnorm: 0.099146545535 xtb: 6.4.1 (025e99ea0bd20707e8cccc6e19fe66a0758c6dd1)
C         0.86879462515368    0.95717864269866    0.16495087568453
O         2.29015464039492    0.96248699819520    0.18451886646089
C         2.88021158822202    0.38984739133726   -0.90845128037398
C         2.28526237960884   -0.59922477949494   -1.69295169547090
C         2.86057251777680   -1.06956044842422   -2.87755940364940
C         4.13047998236033   -0.56966950272268   -3.19744620851947
C         4.69621980233921    0.46011910566022   -2.43395972565529
C         4.06809291700693    1.00179349238615   -1.29997563953153
C         4.98379878855895   -1.10372453876487   -4.32938240138414
C         5.51176133181152   -2.52540962473596   -3.99984751879323
C         4.42907215177145   -3.55570715295970   -3.63801334112730
C         4.90285392505717   -4.98420625270570   -3.88853790467687
C         4.96838648737611   -5.12476070205836   -5.39695021541151
C         5.50334275089624   -3.89203177037992   -6.09697937639524
C         6.36180538930680   -3.05641691171679   -5.16475061351905
H         0.58196824449034    1.56466961714056    1.02954424888337
H         0.29550160460843    0.02684156025835    0.22659358366090
H         0.59368148514333    1.45343055265782   -0.77155997374627
H         1.31049430256200   -0.92080737229400   -1.33674789123787
H         2.21485343254969   -1.68025973421825   -3.50610242231815
H         5.72879514865758    0.71269610914984   -2.65316167575588
H         4.58277533328884    1.68659130375914   -0.63255782522535
H         5.83775854774374   -0.44485385514304   -4.54350262040486
H         4.29444353592930   -1.20388534367025   -5.17874676282569
H         6.25618375612241   -2.48497609068534   -3.18689266000804
H         3.48661605125421   -3.40411586248761   -4.17550699537401
H         4.20078013829286   -3.31883414933367   -2.58834210548555
H         4.14470067213910   -5.66318182263741   -3.47772262233436
H         5.86263843673558   -5.10188767649619   -3.36871157194632
H         3.99072619748009   -5.39381765294984   -5.81705746479278
H         5.62611604696149   -5.99472246728135   -5.50444960221320
H         4.66561822732252   -3.30236897168998   -6.48477597524430
H         6.06276969414816   -4.24005371146265   -6.97500197349523
H         6.82681615940655   -2.31574738683095   -5.82313420756910
H         7.17164614560565   -3.71374805228163   -4.81469391870490
