35
 energy: -44.223738733078 gnorm: 0.098879013698 xtb: 6.4.1 (025e99ea0bd20707e8cccc6e19fe66a0758c6dd1)
C         0.93799314457862    1.24467306755048    0.37175560177757
O         2.31050303521413    0.91072933426471    0.21246480812219
C         2.76795367417574    0.46864395278951   -0.99830622326756
C         2.00107212955163    0.02663495884502   -2.07728257494686
C         2.64138108165844   -0.50440747998228   -3.20133381967305
C         4.04142585833840   -0.56395981208499   -3.23614255531931
C         4.78954488221610   -0.02222530923719   -2.18244459968311
C         4.15976143118539    0.48786907182709   -1.03481619375601
C         4.67349134594908   -1.17673100753416   -4.46888421055080
C         5.49672607300190   -2.44496536467057   -4.11903800032805
C         4.52891949279934   -3.55191830506842   -3.66886198310419
C         5.19481246761643   -4.92332436545157   -3.72947030800037
C         5.38196601706063   -5.40338225340725   -5.15561046314864
C         5.48969253173870   -4.19208848882041   -6.05949212733602
C         6.18826489682935   -3.04396536138189   -5.35375089030659
H         0.76705540017281    1.99990993537757    1.14585760733686
H         0.42117258359550    0.34295739565196    0.71497150434274
H         0.63542122035893    1.68549482914989   -0.58382389464841
H         0.91576968003104    0.06925465772560   -2.10505794416768
H         1.98376682992042   -0.79116931371018   -4.02004270411372
H         5.87117887588153   -0.10870013457933   -2.20787076629341
H         4.66725115750182    0.93526610890267   -0.18535598684013
H         5.38644842788541   -0.46608301596514   -4.91146408928917
H         3.99584743923329   -1.42219002140522   -5.29786627672743
H         6.29836350681518   -2.34195059067313   -3.36839787464873
H         3.71792014149091   -3.57939587935465   -4.40481570969551
H         3.93272937559680   -3.42571005422671   -2.75307566203288
H         4.55790345465332   -5.50058216135109   -3.04705275060661
H         6.15549708540110   -4.90486773307841   -3.19843447046036
H         4.55068887584810   -6.08152934654610   -5.38755058636873
H         6.24306440189968   -6.07734986656845   -5.22823960382620
H         4.48269609809315   -3.89223930677750   -6.36920077424891
H         5.98618562672555   -4.50590885942573   -6.98686089902542
H         6.41689181234085   -2.24234888304126   -6.06328318385774
H         7.14101257420305   -3.44293980395122   -4.97486142413580
