35
 energy: -44.224869119826 gnorm: 0.092814135830 xtb: 6.4.1 (025e99ea0bd20707e8cccc6e19fe66a0758c6dd1)
C         0.97926954067686    1.02125673842030    0.34344666987970
O         2.27553074408927    1.41413872792598   -0.08786065686479
C         2.78052505124152    0.80623084387362   -1.20414727555088
C         2.07413695623591   -0.14992452946915   -1.93520950453741
C         2.71974941499223   -0.92593253349322   -2.90293309700913
C         4.05573249715022   -0.68369542328006   -3.25129194142571
C         4.72911715228830    0.33275063070527   -2.56076441680276
C         4.14306870797780    0.95813789290561   -1.44752031648612
C         4.83946437766735   -1.48277278766781   -4.27202061341448
C         5.35267915675702   -2.79331498835835   -3.61809714072600
C         4.26249399993580   -3.87767885705354   -3.60065701370933
C         4.69973677090473   -5.14588663625304   -4.32750582333513
C         5.01307694726246   -4.79784899796033   -5.76974210953835
C         6.16187176686153   -3.81092549998362   -5.81548181794573
C         6.54883162666822   -3.29855417849091   -4.43998246989962
H         0.90831896497001   -0.07059387057786    0.30264692963187
H         0.15596977443024    1.45507251043181   -0.23272445895984
H         0.85242075583351    1.34200144321005    1.38269543140301
H         0.99760166509236   -0.26080130874751   -1.83904598559397
H         2.16644695412161   -1.59128534718747   -3.56333835721197
H         5.77954006370390    0.54493044420169   -2.73295011959350
H         4.67445623449013    1.60448637558207   -0.75531116632424
H         5.62720333632394   -0.80637853219258   -4.63418558476094
H         4.07524382654022   -1.82276744191360   -4.98408329564996
H         5.71250216718926   -2.66013648623118   -2.58393752593113
H         3.40605028029833   -3.47547582220446   -4.15277994053720
H         3.82165198757498   -4.06109350906469   -2.60967106519764
H         3.90187899485029   -5.89314366514109   -4.22950950921989
H         5.63721516931273   -5.61905407936637   -4.00734732291617
H         4.11085908663590   -4.27457337212721   -6.11162942730280
H         5.05303604790797   -5.68848950772658   -6.40704934827679
H         5.81415059557995   -2.94590790280597   -6.39055167417559
H         7.00180899477406   -4.25101755967467   -6.36849708864927
H         7.24962879700218   -2.46288101994367   -4.53394533411430
H         7.12033886044137   -4.07883284537346   -3.91556788867238
