35
 energy: -44.212170641020 gnorm: 0.114146322843 xtb: 6.4.1 (025e99ea0bd20707e8cccc6e19fe66a0758c6dd1)
C         1.10337213465225    1.14831107583098    0.54113699721086
O         2.37953252971986    1.48707874137538    0.01451901712953
C         2.75017133696732    0.72309961735763   -1.05768890754520
C         1.99771442821163   -0.17874910565859   -1.81144397545252
C         2.61899747813060   -0.90094475100338   -2.83513028039858
C         3.96872538803690   -0.73483474017730   -3.17502076825381
C         4.68907791538111    0.26429876135186   -2.50699215270425
C         4.04524226287435    0.99244280035786   -1.49251871626692
C         4.59454338344811   -1.40105538604551   -4.38297325838834
C         5.30155839327218   -2.67180961381976   -3.84090346414292
C         4.26726162118250   -3.80903408191445   -3.88094770545537
C         4.83786121355006   -5.19481949374760   -4.16705311569341
C         5.29980516026983   -5.20982336016586   -5.61126239592054
C         6.12101952159620   -3.97630179471750   -5.92728639969448
C         6.46014407321833   -3.04157530303435   -4.78031574283102
H         1.04186644790643    0.06018933618178    0.43604423615251
H         0.31519352268329    1.71404037908049    0.03446488104453
H         1.13377352110722    1.44904470534131    1.59358215524422
H         0.93177762995166   -0.34240003648922   -1.67928335436381
H         2.01396719652248   -1.66838935276386   -3.31465112227807
H         5.74106683254077    0.51752009327634   -2.59216703176903
H         4.67873907745852    1.61629530178720   -0.86899451782641
H         5.40217189444728   -0.69895291110031   -4.63594289644930
H         3.81485585071021   -1.67444203504985   -5.10685844537713
H         5.73688580309439   -2.45647817637997   -2.85054108390954
H         3.50656710776073   -3.60450773270032   -4.64227265804129
H         3.66060678307117   -3.68691154922025   -2.97150185022812
H         4.03957589780978   -5.93775198745975   -4.04309650503921
H         5.66881413082271   -5.26522171898782   -3.45303951647282
H         4.41400863268731   -5.23546181972831   -6.25888000532301
H         5.85144467195802   -6.14041945077260   -5.78642669085020
H         5.49900708038207   -3.45460754186562   -6.66268182136553
H         7.12443562601130   -4.23419522222321   -6.29012046701918
H         6.94297596152281   -2.15187648943076   -5.19697472983889
H         7.04619281124322   -3.68487050874284   -4.10712622409978
