35
 energy: -44.225860916358 gnorm: 0.094783257438 xtb: 6.4.1 (025e99ea0bd20707e8cccc6e19fe66a0758c6dd1)
C         0.78377703537398    1.17516455241669    0.23291159537952
O         2.09866469968766    0.64576526045506    0.12575661668033
C         2.72342191328271    0.29015928939158   -1.03781112551829
C         2.04950698994619    0.16022219758806   -2.25297543279407
C         2.65520157737086   -0.46359808706572   -3.34818097533235
C         4.04437571167272   -0.64977092762932   -3.36863701575316
C         4.78333299320819   -0.29477184354456   -2.23225874982131
C         4.10897552001979    0.16117766159412   -1.08717075938884
C         4.74390200194308   -1.26415038999991   -4.56356303937627
C         5.68623275243092   -2.41254961440787   -4.11443257628850
C         4.91032010279920   -3.39703907060819   -3.22370651522498
C         5.41059042777610   -4.79543638143586   -3.57307161537850
C         4.97333425890397   -5.09999687170121   -4.99272217883674
C         5.27313214467599   -4.01595835568032   -6.00801591743936
C         6.26909991269848   -3.05645722056885   -5.38218323830764
H         0.10387229762642    0.41071937062093   -0.15720308810074
H         0.64093896737643    2.02194252765590   -0.44573127520031
H         0.62252827306897    1.38055648506304    1.29631121838256
H         0.98684509078975    0.36661604724468   -2.16012820089914
H         2.18529728190894   -0.60052820519728   -4.32050458897321
H         5.86568280034561   -0.31567803302409   -2.31060621671224
H         4.62570290617821    0.32824020099370   -0.14675834700087
H         5.23182230566424   -0.44762583141930   -5.11531185377984
H         3.90822414985944   -1.66670842799764   -5.15199505575191
H         6.53770796970819   -1.99395751116998   -3.55187961687641
H         3.83722227799153   -3.37612937364777   -3.44308449157746
H         5.05074349082686   -3.20663841310607   -2.14943251371712
H         5.14751243919723   -5.54042791383237   -2.81126391940119
H         6.50829670922281   -4.78467611969464   -3.58647984790318
H         3.89157849343362   -5.27297365039561   -4.92501039750718
H         5.50067916742952   -5.99406381223472   -5.34421815141977
H         4.38132624773433   -3.44031561038192   -6.27854959230328
H         5.77181177631247   -4.42775839156081   -6.89500002930990
H         6.61669603730598   -2.33271567180485   -6.12627357396603
H         7.19277478915250   -3.60639634409455   -5.14796612713647
