35
 energy: -44.222315748162 gnorm: 0.099494868758 xtb: 6.4.1 (025e99ea0bd20707e8cccc6e19fe66a0758c6dd1)
C         0.74220773317207    0.87999748968389    0.12810462631737
O         2.11823410181647    0.52507382768507    0.16354475672926
C         2.83666949518516    0.33566798727207   -0.98477710124080
C         2.21516483542630    0.30486544209850   -2.23395779964453
C         2.80997341505411   -0.07450280028510   -3.44134147897457
C         4.17099578669923   -0.40942204470519   -3.42315503232705
C         4.83314519578727   -0.38310618712130   -2.18852820378853
C         4.19893625645329    0.04871542920114   -1.01158998373643
C         4.87059588063123   -1.07919981732727   -4.58788881536441
C         5.61321280750249   -2.40043327535559   -4.25413976350255
C         4.78556052173619   -3.32551039755706   -3.34646314294352
C         5.43436058108202   -4.70401445599941   -3.42786616027163
C         5.21146601593535   -5.28665222016288   -4.80996927490140
C         4.93567816021530   -4.18153439497106   -5.80921664337481
C         5.94661077946279   -3.06923420740319   -5.59693311129725
H         0.46483825621081    1.16505206149862    1.14822541358570
H         0.09974170388269    0.08150500924501   -0.25613352842651
H         0.61693618785213    1.79003002644710   -0.46784301429158
H         1.18171599069485    0.61153368263357   -2.36963172019124
H         2.26971893656109   -0.07562652447924   -4.38637954454655
H         5.90960897457669   -0.42255918072884   -2.05539031042311
H         4.72078314511797    0.07724549938127   -0.05966853466306
H         5.64200124306624   -0.37067561108822   -4.92275079809710
H         4.16323489106165   -1.11716157019038   -5.42744941995459
H         6.56649928191144   -2.14110104614164   -3.76354123374147
H         3.72988673266447   -3.49448252188419   -3.58542783228489
H         4.77172072859710   -2.91799412435677   -2.32481021091692
H         5.07409568858737   -5.46362916157773   -2.72233934807991
H         6.51148152546874   -4.70249927968548   -3.21558611239620
H         4.36857029039504   -5.98381619995249   -4.90047103316410
H         6.09858287425491   -5.84379794328578   -5.13185448453637
H         3.98679299942653   -3.65426869847158   -5.66266073395649
H         5.04067109184911   -4.66978343343068   -6.78675990065193
H         5.78877123333681   -2.33571805699182   -6.39401281740836
H         6.95470635631190   -3.50480388227810   -5.52993805420225
