35
 energy: -44.229000182263 gnorm: 0.082902078162 xtb: 6.4.1 (025e99ea0bd20707e8cccc6e19fe66a0758c6dd1)
C         2.55647605873481    1.91036938611188    1.04339484311452
O         1.84809852214510    1.20253121791236    0.03451339917000
C         2.48631164566966    0.55813250022508   -0.98925482398970
C         1.72907468291821   -0.06415006050985   -1.98274657629046
C         2.27149925279157   -0.66789989276933   -3.12149790562516
C         3.65961978986428   -0.79754507196918   -3.26708999340092
C         4.43037626293717   -0.27945177924432   -2.21782760188791
C         3.86363488723333    0.41711842374369   -1.13733298510629
C         4.16835860898962   -1.29635850937887   -4.60388366259479
C         4.89296857137220   -2.65966411863786   -4.44619915527058
C         3.97460704695801   -3.89248259890340   -4.48392903206443
C         4.70454700828150   -5.20407601980408   -4.21052135605850
C         6.19976493277879   -5.18980263687135   -4.46246856827667
C         6.49577632930581   -4.28687641735955   -5.64269784464975
C         5.96817805376150   -2.86848493757159   -5.52409585748050
H         3.51865747824472    1.43902205904822    1.26894964171073
H         1.95251690379117    2.01124027852545    1.95061598607672
H         2.76997416080706    2.91693108906912    0.66888467304236
H         0.64620199097857    0.02440437171304   -1.97897993513384
H         1.62874634996112   -1.11634909524656   -3.87696804673751
H         5.50722854561363   -0.38031270200642   -2.30878218598077
H         4.53339872150224    0.84729201049717   -0.39864517915852
H         4.80004089178944   -0.55423871032986   -5.11323719750696
H         3.23668631963203   -1.47563613283960   -5.15751617702187
H         5.35539373101446   -2.55999469932187   -3.44974333386411
H         3.58260369891041   -3.93629194643965   -5.50594516147348
H         3.15374045360453   -3.77849509248614   -3.76058910425835
H         4.24803082312809   -6.05659616538157   -4.72953556606403
H         4.59922434797885   -5.34829000275328   -3.12730203020013
H         6.65106514872549   -6.16594070551403   -4.68197704700765
H         6.68041937859198   -4.78843548072761   -3.56309463362927
H         5.89712204860501   -4.68500225223335   -6.46912368454406
H         7.53133618005967   -4.30192230473488   -6.00655341262615
H         5.52851265793037   -2.63716750295604   -6.49953519743371
H         6.83334328327777   -2.20345017686980   -5.38379666770727
