35
 energy: -44.227570877038 gnorm: 0.094764858010 xtb: 6.4.1 (025e99ea0bd20707e8cccc6e19fe66a0758c6dd1)
C         1.34613269356109    2.00005706298936    0.29530321573185
O         2.30553708979485    0.95479997176108    0.38280290012185
C         2.74550769087025    0.33121779778179   -0.75220292029966
C         1.91220426394646    0.10866493510226   -1.84935599156425
C         2.48562244756322   -0.57403783875898   -2.92666808696241
C         3.86146015038265   -0.82765311693639   -3.01403753562199
C         4.72047599805395   -0.50654724052060   -1.95459402914808
C         4.09773693310694    0.00298065943336   -0.80287712611992
C         4.47944896053592   -1.21411407255557   -4.34196263938700
C         5.18765231349849   -2.59492104235499   -4.36057133700053
C         4.15799669855570   -3.72987596714514   -4.23274545320051
C         4.73267407892087   -5.14157857323121   -4.16431256982005
C         5.99141701946617   -5.24074736387098   -5.00400866206814
C         6.01511102299348   -4.17630820983348   -6.08208450770401
C         6.16410950339189   -2.76842049910627   -5.53444191984344
H         1.69069896035709    2.69678793732603    1.06645594683699
H         0.40701630796568    1.54669089921621    0.62773567234769
H         1.23817881646397    2.36083512763768   -0.73289468171704
H         0.83605168091700    0.25688765416437   -1.82948225461687
H         1.80466736173675   -0.79530293309259   -3.74661627453648
H         5.79964698301265   -0.59275936388409   -2.03214364140649
H         4.74094796832318    0.38645058460556   -0.01641481562221
H         5.15032891883906   -0.40860084115876   -4.67403768324682
H         3.69330271353097   -1.22202584066240   -5.10914850589735
H         5.77259300394583   -2.56219802313006   -3.42597580322432
H         3.45029530401784   -3.67990019864381   -5.06746936370698
H         3.55926159791828   -3.55223288885748   -3.32720971138995
H         4.01999899271612   -5.93186907312732   -4.43284286803818
H         4.99709178104849   -5.37317328419057   -3.12426362381794
H         6.08496189362748   -6.27550320466136   -5.35788871488328
H         6.85204181133671   -5.03821749271281   -4.35647149495947
H         5.10630714490447   -4.32022563214505   -6.67641949837558
H         6.81843062367436   -4.42617699058771   -6.78724028362217
H         6.11072734754878   -1.99736119139915   -6.30962783627239
H         7.20160554622466   -2.80008792820593   -5.16966102395549
