35
 energy: -44.222912657331 gnorm: 0.108616763111 xtb: 6.4.1 (025e99ea0bd20707e8cccc6e19fe66a0758c6dd1)
C         0.69779859306687    0.82234176815051   -0.02153724554360
O         2.11318163291258    0.91998952192085    0.06695654388818
C         2.74581369942013    0.38378674593986   -1.02066945919504
C         2.10731139199169    0.27670240719487   -2.25700152761712
C         2.83256110856211   -0.22428479936470   -3.34259698494452
C         4.17709834752413   -0.59947960299493   -3.21480035419120
C         4.80897531684751   -0.43611228438864   -1.97484860362474
C         4.12349631517314    0.20388145607419   -0.92871238550764
C         4.88105452566921   -1.13712485276341   -4.44363337520957
C         5.75556212871495   -2.39874649729586   -4.21543732935836
C         4.99342366025950   -3.34629883922581   -3.27419222750754
C         5.40009921482069   -4.78175053614179   -3.59346455912024
C         4.94639378187384   -5.23050695803731   -4.96901056763194
C         5.01722829688721   -4.09159784434455   -5.96585967862999
C         6.07714164980965   -3.08716489869181   -5.55118040688573
H         0.32177460838972   -0.11710898103446   -0.43971736027159
H         0.41612171267364    1.66671880772655   -0.65846530636475
H         0.29621218966082    0.99525297065049    0.98237303281716
H         1.02082651639167    0.27729815094683   -2.26142695006649
H         2.37232665293295   -0.39530204553590   -4.31414751837448
H         5.86822317924444   -0.66808340012544   -1.92752157270892
H         4.71447112507736    0.40849869881791   -0.04092123354183
H         5.41786750805852   -0.25883185513553   -4.83046480293649
H         4.06779358103039   -1.30127660280888   -5.16358025590576
H         6.69310907143592   -2.07175294474679   -3.73504565245630
H         3.91103227282209   -3.31102109297988   -3.43938064631564
H         5.08311275198842   -3.12060542191714   -2.20132032878770
H         5.21510554407941   -5.47798572887346   -2.76545050559307
H         6.49701784927369   -4.77769426705940   -3.63827190964138
H         3.90771687307157   -5.52209238845799   -4.76694720641269
H         5.56192164827000   -6.06808316009270   -5.31627029063119
H         4.07052780021603   -3.54071320063162   -5.97831254844961
H         5.30500404077226   -4.53107345365653   -6.92973091843262
H         6.29998030489026   -2.28207067140762   -6.25861346946840
H         7.06238934821764   -3.54944400752560   -5.38977728969806
