35
 energy: -44.215843738475 gnorm: 0.096326773809 xtb: 6.4.1 (025e99ea0bd20707e8cccc6e19fe66a0758c6dd1)
C         0.99827793241285    1.68030074289087    0.24235406926754
O         2.37167929364160    1.48049752956809   -0.06509145649986
C         2.84557266934853    0.52224141453257   -0.91822530672493
C         2.03084658090255   -0.32364152270776   -1.67213028336300
C         2.49366548367373   -0.95149140697573   -2.83277495191676
C         3.86141865063633   -0.90889289990842   -3.13661732236443
C         4.67726920148847   -0.10784237065537   -2.32659034537184
C         4.21530308135235    0.53881592169180   -1.16801586749822
C         4.47781949442502   -1.55371537059217   -4.36091358095176
C         5.26420970802373   -2.76982569587918   -3.80306745278753
C         4.38875748909851   -4.02135466715108   -3.62442958651896
C         4.83494176897790   -5.18451200437444   -4.50523944355764
C         5.33157502587395   -4.79402855010173   -5.88372986787619
C         6.15472062369973   -3.52368414415993   -5.95078257978957
C         6.56663928867166   -3.06043472330165   -4.56514779643336
H         0.53597499945055    0.83651242791654    0.76497595170909
H         0.33494821726143    1.83246833176444   -0.61486848767769
H         1.11782203494888    2.59470223088229    0.83276485659015
H         0.94982368678495   -0.41309325806305   -1.61002371870949
H         1.79153784121390   -1.56899168625580   -3.39016466321520
H         5.75191794788802   -0.07526080778225   -2.47533515588863
H         4.84721311791521    1.18577347117699   -0.56682685960939
H         5.18413851397491   -0.89140137542875   -4.88212269699073
H         3.69923025761088   -1.79185284623859   -5.09830900879321
H         5.55527203554541   -2.57438113206793   -2.75722837721414
H         3.39053306759140   -3.87802882315762   -4.05234144588910
H         4.20521420602439   -4.33932965646016   -2.58749201081196
H         3.95363068450685   -5.83588547394122   -4.56504539923924
H         5.64554211313696   -5.81958204469125   -4.12462445582049
H         4.43079032124074   -4.71279664779072   -6.50557364313601
H         5.99955812239083   -5.60901366664035   -6.18472091058207
H         5.58630809508638   -2.72711318584217   -6.44297431343619
H         7.07896979342711   -3.65265730540549   -6.52882311028178
H         7.19140167165915   -2.16159734635516   -4.55748899937488
H         7.08871392388275   -3.84848021007259   -4.00221941934791
