35
 energy: -44.220425249110 gnorm: 0.099233409559 xtb: 6.4.1 (025e99ea0bd20707e8cccc6e19fe66a0758c6dd1)
C         2.57783031142305    1.49737167557488    0.91714844063183
O         3.14776470083472    1.69940757363721   -0.36933189906000
C         3.22451821919001    0.69948297526790   -1.29934629733076
C         2.53025804955893   -0.51116640900564   -1.29972798308082
C         2.62992868404478   -1.33269573262009   -2.42695830781565
C         3.44067836437878   -0.97946303790662   -3.51452218301644
C         4.11756602492233    0.24722208204559   -3.53698320021967
C         3.98922095972108    1.06717317000323   -2.40336852527076
C         3.38080911151476   -1.92731322831161   -4.69462516769084
C         3.77707947085824   -3.35438096229928   -4.23097262626008
C         4.00982360297867   -4.23926902306761   -5.46687558839767
C         5.32450795473776   -5.00108502538820   -5.32873493031773
C         6.56193915996563   -4.23490889280959   -4.90318127275461
C         6.24288288785829   -3.15280715865861   -3.89169791531883
C         4.90987629113790   -3.34919804783321   -3.19256645775771
H         3.31335872864819    0.97131447980256    1.53447989927568
H         1.61547572364170    0.98026342915197    0.98396540601462
H         2.45198823826850    2.45853564826603    1.42639627653700
H         1.93613655022542   -0.90379865249234   -0.47916177652497
H         2.17550633751990   -2.31847770624200   -2.50885672631829
H         4.55515518798508    0.58148850535497   -4.47231105063079
H         4.59995672124935    1.96446574801539   -2.43743392526074
H         4.07278123407908   -1.61273431271663   -5.48924458585087
H         2.35262528770004   -1.94310141625676   -5.08095590584815
H         2.99816157510458   -3.69218406956778   -3.52679139965742
H         4.06782774813947   -3.50426069434533   -6.27712316163131
H         3.15746375971575   -4.91132355430688   -5.64537257024173
H         5.51323009982081   -5.48513291687516   -6.29551048208294
H         5.18500454857297   -5.79080451144663   -4.57897725182322
H         7.10073329724977   -3.79791945799836   -5.75373550251682
H         7.32686792320796   -4.93448063035406   -4.54753940817993
H         6.21353926097239   -2.20626909062083   -4.44222078866432
H         7.07664353157301   -3.03688611965382   -3.18713637812929
H         4.80464350357832   -2.54037134328212   -2.46248376050833
H         4.99333118580538   -4.26471971803268   -2.58814828936863
