35
 energy: -44.220162843207 gnorm: 0.096825624476 xtb: 6.4.1 (025e99ea0bd20707e8cccc6e19fe66a0758c6dd1)
C         1.15156376962791    1.18162609654224    0.62143474775877
O         2.27030068049615    1.65838316042351   -0.11463984204146
C         2.86108998070972    0.86393375456847   -1.05829508360350
C         2.22355740773364   -0.29645618380200   -1.49956218360058
C         2.91833990045727   -1.05757993171406   -2.44479272086817
C         4.04436271196104   -0.60050062812930   -3.14338748621614
C         4.61637326612066    0.60704738586157   -2.72140472659706
C         3.99602558518020    1.34936946113156   -1.70258132443289
C         4.59085337759465   -1.44754542343303   -4.27409981838413
C         5.06759496236812   -2.86249078757378   -3.85081121923473
C         4.04300426203699   -3.98042731634795   -4.10592813041005
C         4.72085378974354   -5.32258766705930   -4.36470798285136
C         5.41695033052717   -5.22191294110659   -5.70808878262782
C         6.24527387023913   -3.97142455386830   -5.92256151775208
C         6.35676659545901   -3.23834433170428   -4.59801498562629
H         0.87680557271643    2.04108360574650    1.24165815901355
H         1.38545475648617    0.30886352734983    1.23915013820594
H         0.27488394220077    0.91659697627692    0.02126992713692
H         1.39169042753686   -0.71683773272321   -0.94121999096324
H         2.43929246521333   -1.98306530921272   -2.75937732030514
H         5.50682623836050    1.02824018620375   -3.17719701207982
H         4.29430345654121    2.36500396106847   -1.46007472419167
H         5.41482268100882   -0.80369478070381   -4.61430014754419
H         3.81066278299926   -1.55435476631857   -5.03996995502684
H         5.29615044242095   -2.82243757471901   -2.77245443715626
H         3.44606881570762   -3.84302324085829   -5.01416325461511
H         3.27222342930002   -4.01376915669434   -3.32182291271013
H         3.95560477624295   -6.10927231050950   -4.37443393485532
H         5.37310377035555   -5.39948867227222   -3.48498595822017
H         4.60602664048624   -5.23376101890405   -6.44765877792878
H         6.05194949339012   -6.11261692961313   -5.77457360767683
H         5.99295364145502   -3.30282325557893   -6.75272872979501
H         7.28175867788406   -4.23918998670747   -6.16546556017989
H         6.77546674379856   -2.26492863540470   -4.87269186543619
H         6.96291332208643   -3.80560328151962   -3.87602509797796
