35
 energy: -44.205240596333 gnorm: 0.106547405034 xtb: 6.4.1 (025e99ea0bd20707e8cccc6e19fe66a0758c6dd1)
C         1.36848092388517    0.49050335542018    0.70761392027714
O         2.26692409625370    1.18406680044442   -0.14821608207564
C         2.61641352020917    0.63582088149345   -1.35152428972974
C         3.88916743326394    0.86464093576576   -1.87631770475353
C         4.31922071093461    0.26878402351472   -3.06606623922537
C         3.51150351078146   -0.74973954668397   -3.59055283010066
C         2.26092716865003   -1.04855479546756   -3.03359141251831
C         1.74854843814414   -0.22736619645323   -2.01526347605956
C         3.82711856309847   -1.53798094627886   -4.84502879837841
C         4.95237954146264   -2.60619955729879   -4.87999849288338
C         5.99897741522525   -2.36741212808842   -3.77896884938475
C         7.00483751890412   -3.50510576021905   -3.92641393520331
C         6.60037683557084   -4.76130205652723   -4.67323398542735
C         5.17266140038625   -5.08041999549119   -4.27873173463001
C         4.34740315114000   -4.01543240767425   -4.97802495963016
H         1.62163400081459    0.62455636576534    1.76439188475600
H         1.48794769794949   -0.57236505164976    0.47516985915303
H         0.29964021222629    0.71734451416407    0.77922667505516
H         4.51534342935036    1.59856161433026   -1.37658437679591
H         5.29360848265677    0.57041290883279   -3.44627879275720
H         1.61210938066416   -1.83026995699326   -3.41570838538331
H         0.70274179455223   -0.35203305354638   -1.75061422303054
H         3.94408754401672   -0.81358697520710   -5.66403853826093
H         2.87799256360087   -1.98734601945565   -5.16735400783696
H         5.52485657901691   -2.39402110608662   -5.79866359202693
H         5.51173319976208   -2.40214278402070   -2.79841303565739
H         6.37611311418456   -1.33901712478806   -3.88000421577557
H         7.22560859419421   -3.79249354111327   -2.89044010751145
H         7.91581384322393   -3.04961699992770   -4.33617821851946
H         7.18836301698137   -5.63301542535962   -4.35844923538268
H         6.62651202352179   -4.69971853095126   -5.76709055047355
H         5.11376698684890   -4.99413377740864   -3.18833871786711
H         4.99221496999175   -6.13747138692604   -4.51342919293483
H         3.41364199901443   -4.03786584548023   -4.40716405695567
H         4.08422274613171   -4.19720755989629   -6.03071666840790
