35
 energy: -44.216671528067 gnorm: 0.099222793950 xtb: 6.4.1 (025e99ea0bd20707e8cccc6e19fe66a0758c6dd1)
C         1.06711746025622    1.24009489343954    0.43047092132937
O         2.44219839224695    1.38377168648073    0.10003970068125
C         2.79152623636752    0.73922828127656   -1.05460350173415
C         2.06877111073667   -0.15691654209753   -1.84341191818970
C         2.67136185797624   -0.77476751727531   -2.94370160650308
C         4.02261154451410   -0.54902145511938   -3.24042793127447
C         4.71644595289991    0.43679587452501   -2.52614806041949
C         4.10480253029983    1.03408943865682   -1.41124575123074
C         4.57341263564232   -1.45109619614043   -4.32556692086832
C         5.27394922038794   -2.75953385739936   -3.87195305721564
C         4.35372351987414   -3.98125934491024   -3.71313141241470
C         4.99310623471046   -5.31598115257667   -4.08400718504763
C         5.34741614775936   -5.24143219248205   -5.55651005621920
C         5.82038680439046   -3.88063338898007   -6.02594058700427
C         6.39813548159366   -3.08952764769091   -4.86636353813669
H         0.86089092118577    1.94676812297309    1.24097688581747
H         0.75955026203664    0.23790144880165    0.74511757906740
H         0.45496384540913    1.39184309775062   -0.46465264757476
H         1.07650856389413   -0.45169662725950   -1.51327700431896
H         2.07001068875877   -1.50705525423644   -3.47952297622866
H         5.72949076409888    0.76208165290968   -2.74059118107794
H         4.60873617457545    1.78782177826350   -0.81355768554800
H         5.38240564167809   -0.83980283457768   -4.75107375921141
H         3.71109406900948   -1.60219109580333   -4.98907252698433
H         5.57152091150074   -2.50813353393561   -2.83999172815514
H         3.41117097217626   -3.83731615463736   -4.25255508626317
H         3.98702070423988   -3.95095683525129   -2.67647979932525
H         4.39278754438512   -6.22757988441416   -3.96920911923347
H         5.85121271076754   -5.55563945584607   -3.44254649700370
H         4.40699524813448   -5.47976450610594   -6.06983999505290
H         6.10361521646998   -6.02356222830792   -5.68854542921331
H         4.96375139045166   -3.29017902925020   -6.36859232409832
H         6.62289838523104   -3.99780304370749   -6.76570263815672
H         6.89782548218984   -2.17379170720601   -5.19807562590251
H         7.00861030082804   -3.87027787661573   -4.38864443137911
