35
 energy: -44.220012335500 gnorm: 0.101717774993 xtb: 6.4.1 (025e99ea0bd20707e8cccc6e19fe66a0758c6dd1)
C         0.66581874108486    1.00305675759494    0.15952747882918
O         2.04183846469085    0.65334187180676    0.08920974177771
C         2.70940745219992    0.31127099304818   -1.05447125504557
C         2.10909295364469    0.15444681492114   -2.30455041481576
C         2.90350095305307   -0.26782866458493   -3.37510736312676
C         4.29307612238369   -0.39642600868623   -3.24309570975768
C         4.85100313175077   -0.28528681509364   -1.96254768020019
C         4.06150121312201    0.04917616645783   -0.84958062182889
C         5.04856528085878   -0.97956003455756   -4.41946220576595
C         5.68898886850295   -2.38513267861103   -4.26863344568678
C         4.82762208619988   -3.31028324179486   -3.39296425891551
C         5.36844870769015   -4.72318913560745   -3.59056209475784
C         4.97825479360872   -5.29800044585905   -4.93841165443649
C         5.03608919916776   -4.18040275348684   -5.95991555890571
C         6.06561861604605   -3.14225343256973   -5.55177842518993
H         0.01189806935759    0.13392666755459    0.28537259638962
H         0.35207922539366    1.53847981856930   -0.74207191076437
H         0.56548855826930    1.67450239618870    1.01865516170950
H         1.02454583528360    0.18660011332091   -2.36105731145573
H         2.46455066230286   -0.31336256811657   -4.37020655587382
H         5.89358034370369   -0.25917090303849   -1.66186978243885
H         4.58177237182917    0.23363782179791    0.08561154684079
H         5.86074858246114   -0.36219521640105   -4.82985747333553
H         4.32382005239526   -1.09749305009129   -5.23646821824414
H         6.60771270937292   -2.22857320578509   -3.67860730154147
H         3.80506736611427   -3.27124272217738   -3.78406594830854
H         4.85155140646599   -3.15123087169168   -2.30477057529785
H         5.12384506217676   -5.35317268462849   -2.72577127602919
H         6.46605344818340   -4.70059720901012   -3.58771934261548
H         3.97688455294105   -5.74653847054415   -4.91061475862626
H         5.71842124244893   -6.03660434981816   -5.26645992118227
H         4.07974440464299   -3.72400171414088   -6.23735657732990
H         5.34165086225411   -4.57618056642854   -6.93715322167077
H         6.19063610530667   -2.42530558966971   -6.36948970323812
H         7.01864001899763   -3.68865003375177   -5.61233354150622
