35
 energy: -44.220582085995 gnorm: 0.113285200205 xtb: 6.4.1 (025e99ea0bd20707e8cccc6e19fe66a0758c6dd1)
C         0.90613372683702    0.91095726136596    0.32531435720307
O         2.27463195407567    1.23021087640101    0.11091958863550
C         2.81941471394738    0.61336974681558   -0.98150241914596
C         2.05177462542207    0.05732573866812   -2.00581340947147
C         2.62492495461179   -0.70199891887538   -3.03071223961362
C         4.00648389540006   -0.57397441695792   -3.23018190694090
C         4.78265391324325    0.14240326212674   -2.30942087199618
C         4.18103021334828    0.78680737452666   -1.21549824251461
C         4.67860498793646   -1.27695260273549   -4.39152691955241
C         5.44571866481164   -2.56516879463903   -3.99082525027390
C         4.36541529984690   -3.61648060061748   -3.68694868869088
C         4.89788645304994   -5.02978793247607   -3.90346257371139
C         5.30650684408386   -5.34669893129483   -5.32892901091471
C         5.72514458915896   -4.05016778492868   -5.99194414964454
C         6.40394694538179   -3.02632688082580   -5.10018301280955
H         0.79620282263359   -0.16011018602721    0.52422659298792
H         0.28050462157383    1.29627610023141   -0.48592507567491
H         0.79975018851891    1.39855600755808    1.29996084663231
H         0.96995108845037    0.02415645108255   -1.91080307565570
H         2.03794179800657   -1.33526010942497   -3.69358789928444
H         5.81207476785690    0.31846615716047   -2.60497299651629
H         4.90901681137532    1.18360885749655   -0.51415903884652
H         5.45785986731131   -0.57568813274852   -4.72348370137839
H         4.01605739539112   -1.59047627456191   -5.20969332181491
H         6.04217854014050   -2.44429310746978   -3.07086878075420
H         3.49938225665740   -3.56135990428266   -4.35556765979567
H         3.99493487768544   -3.29245047781494   -2.70318829916140
H         4.28415127865420   -5.84106592231227   -3.49147891573902
H         5.80649720839787   -5.02948077175791   -3.28727993471763
H         4.42728290193269   -5.67966137286736   -5.89532344806724
H         6.12402289828802   -6.07032655940265   -5.42394648859953
H         4.79999195020767   -3.56737303116815   -6.32491954963959
H         6.38768719149293   -4.15356048928629   -6.86105214439108
H         6.84222388202503   -2.20735525309148   -5.67940155530283
H         7.27498813368383   -3.50771418114495   -4.63112066554048
