35
 energy: -44.213714713089 gnorm: 0.089118107765 xtb: 6.4.1 (025e99ea0bd20707e8cccc6e19fe66a0758c6dd1)
C         1.27936275099476    0.35636699341617    0.60317900702949
O         2.50152033911783    0.76598420433231    0.00382939855043
C         2.84172166531896    0.23847167627056   -1.21134987931500
C         3.77333299180612    0.91956284410080   -1.99613292421852
C         4.25945839983890    0.36291094840483   -3.18327807233468
C         3.67533348387644   -0.76806713916096   -3.77027906846358
C         2.71595153170968   -1.41764747307932   -2.98219950090159
C         2.33670110225265   -0.95981642663539   -1.70923669996054
C         4.05237642233527   -1.23520771381367   -5.16105785121054
C         4.93631103066594   -2.51041819795485   -5.19305784869508
C         6.12647320843450   -2.19571644803902   -4.27157554661760
C         6.79125341904503   -3.38793528286061   -3.59001636017300
C         6.29784417847675   -4.68162153076910   -4.20830511341191
C         4.79063546217565   -4.72050052645071   -4.05780608234760
C         4.04941444851719   -3.74172110882954   -4.95046672392562
H         1.08497535149156    1.13256525667745    1.35055184148437
H         1.41332734456391   -0.62260992251782    1.07397566040981
H         0.43857758518193    0.44659944258380   -0.09248195867163
H         4.03551324865166    1.86338568878708   -1.52610176984628
H         5.00102728139051    0.93751326588154   -3.73543826227114
H         2.21396330042429   -2.32119251651807   -3.31336511245974
H         1.60598938419061   -1.45702631545807   -1.07825706957776
H         4.46188593251031   -0.37708685984257   -5.71344891049209
H         3.08757998628596   -1.41717336975950   -5.65372306289465
H         5.21385523802789   -2.66846391684347   -6.24884475201204
H         5.63956295708425   -1.65346437762798   -3.45366115455844
H         6.80724731670968   -1.56148136436066   -4.85837043278368
H         6.39184716684916   -3.31443159779223   -2.57038641238424
H         7.88753949932518   -3.34397299891943   -3.62847139765197
H         6.83694458864854   -5.44846649292432   -3.63732268108115
H         6.63992888376203   -4.85131487349721   -5.23552465566573
H         4.48358839526334   -4.61735502913263   -3.01140563283501
H         4.31546024989001   -5.67218964891071   -4.32891084069907
H         3.06129129029719   -3.59584506142417   -4.50255141761490
H         3.84420813867132   -4.20215265830705   -5.92840288140846
