35
 energy: -44.218866459373 gnorm: 0.105499958313 xtb: 6.4.1 (025e99ea0bd20707e8cccc6e19fe66a0758c6dd1)
C         0.82190629879636    1.48520287329745    0.26826153760658
O         2.23302114237578    1.46945518476731    0.09743330884475
C         2.81746944973126    0.70359476656957   -0.87341429242039
C         2.16245927678762   -0.13316352755225   -1.77810566106019
C         2.85631764929095   -0.81228657428672   -2.78450780586197
C         4.24838827334219   -0.72394187681767   -2.92313715018870
C         4.89789845367219    0.06694974221379   -1.96602445377808
C         4.19870647849656    0.81856805155781   -1.00681908389280
C         5.04290018148079   -1.33659226769373   -4.05806341315046
C         5.27129048545400   -2.87131486883222   -4.08953648752256
C         3.95951300750679   -3.63965240632988   -4.32094542204361
C         4.17651999209259   -5.12794990989158   -4.57730436554317
C         5.49138579755256   -5.30236209239299   -5.31219624277585
C         6.08705528586882   -4.12061156224109   -6.05008728775164
C         6.51013744224544   -3.16322145287656   -4.95069362424729
H         0.39747692931414    0.48807144842250    0.42454648973932
H         0.31651671482643    1.85465826500394   -0.62955575028524
H         0.70386747980534    2.19200550007082    1.09621241430407
H         1.08624445357672   -0.20104874897592   -1.64535560920176
H         2.19388378661887   -1.32792912171657   -3.47752096520713
H         5.97795434979850    0.15659763117624   -2.02517687663456
H         4.70973596255843    1.60445711449134   -0.45862219448261
H         6.01621716740227   -0.82881922579015   -3.99461340312401
H         4.56984676079395   -1.20965669266867   -5.04130828718664
H         5.51459032692580   -3.25916887146960   -3.08600787499544
H         3.58015934315108   -3.18837549265467   -5.24427786189341
H         3.23191272276084   -3.48476811313398   -3.51060941611659
H         3.36229969265736   -5.48404009822707   -5.22136838132466
H         4.12993949739697   -5.77531516905735   -3.69186485925038
H         5.43572536692169   -6.15971125558951   -5.99524508064765
H         6.22759273005686   -5.72905737355091   -4.62159631976682
H         5.26842669019532   -3.67632137970790   -6.62656300426003
H         6.88266972839587   -4.45434675529134   -6.72877715563159
H         6.76152129543229   -2.19319578039016   -5.39132007944149
H         7.32270231966532   -3.63453830239367   -4.37792428751846
