35
 energy: -44.222507607557 gnorm: 0.090241981248 xtb: 6.4.1 (025e99ea0bd20707e8cccc6e19fe66a0758c6dd1)
C         0.78234673080808    0.78352794194039    0.15458987982833
O         2.17825506712087    0.51716727422232    0.18875548788790
C         2.77003985026358    0.10991501892944   -0.97511883332704
C         2.08492323726382   -0.04330297194791   -2.18127334755583
C         2.78097394341999   -0.40532970467561   -3.33883237112162
C         4.17121257141124   -0.57437017168609   -3.39837561653935
C         4.85597953854416   -0.22040022747938   -2.22823150402808
C         4.16013516114293    0.06437726662595   -1.04139671011223
C         4.98701155899525   -1.03705628535951   -4.58793053645440
C         5.74006074976375   -2.33521922687797   -4.19268873315697
C         4.78693979002502   -3.17243821819902   -3.32362162469020
C         5.18615125392519   -4.63867350921270   -3.46009758479182
C         4.88123256888042   -5.07422545822489   -4.88019506962358
C         5.16461354402414   -4.06017606049111   -5.96979990309871
C         6.19241512389539   -3.06156139978963   -5.46914689381031
H         0.25944544393918   -0.16202524618369    0.33162029857505
H         0.45587758253949    1.23398090004318   -0.78801386920689
H         0.52260705390103    1.54292715737851    0.89947503880506
H         1.01234099859929    0.13000114615166   -2.18280595414111
H         2.22566801019633   -0.48341512821974   -4.27184420725031
H         5.93074575236854   -0.09776163325884   -2.31707886616246
H         4.69776044617260    0.46928920060843   -0.18916554195041
H         5.70912919287843   -0.24704746195938   -4.84019529569081
H         4.29482550200720   -1.01459803777730   -5.44059504586904
H         6.67160909221490   -1.97226970563386   -3.72666238353013
H         3.77897828897686   -2.99975994150771   -3.71643032990947
H         4.77197917856430   -2.81790638225982   -2.28241121128273
H         4.73531225082113   -5.28341997220409   -2.69483974034634
H         6.28100959253928   -4.68459463325379   -3.39353098012648
H         3.80540068254477   -5.29158539199230   -4.88666026965776
H         5.48887112900224   -5.97413208550841   -5.02832071775401
H         4.23308945555073   -3.56389286449252   -6.26277884194988
H         5.52653834278305   -4.59820070366056   -6.85554330947702
H         6.46026897570949   -2.44655350055777   -6.33419886836494
H         7.04061424734903   -3.71739257134153   -5.22234800295682
