35
 energy: -44.218063391204 gnorm: 0.102892099065 xtb: 6.4.1 (025e99ea0bd20707e8cccc6e19fe66a0758c6dd1)
C         0.71807359965188    0.85441401083475    0.08409181143041
O         2.13903238000069    0.81567969015040    0.09124576334590
C         2.76093236451990    0.38090244272840   -1.04668052444988
C         2.13597632949386    0.19784795406112   -2.28101851271159
C         2.88452555844414   -0.20902625924243   -3.38990096446486
C         4.24298789797650   -0.54494553595900   -3.30852612448728
C         4.85048775750092   -0.44071749864859   -2.05014692521903
C         4.11437398720558    0.06407208306038   -0.96515916132009
C         4.90043603489975   -1.10692684447183   -4.55214435596846
C         5.71876423778733   -2.38545272732155   -4.22928725135400
C         4.90910830188259   -3.30712871430792   -3.30212842803075
C         5.27108562536459   -4.77762149795550   -3.48777540207292
C         5.05496846596392   -5.16693390786151   -4.93728807610740
C         4.97629856726163   -3.99639473063993   -5.89618782793324
C         6.14579597441471   -3.10564793451541   -5.51789333168620
H         0.35505157226159    0.04460113959143   -0.55719944725015
H         0.40937410332197    1.83857554182394   -0.28213558377204
H         0.37338792404596    0.68182289869828    1.10898686118428
H         1.12463931102205    0.51739983948023   -2.51671612407372
H         2.40960028819810   -0.29784908650849   -4.36536475689416
H         5.85186962528577   -0.85888302082946   -2.02944789155020
H         4.50770315457866    0.11506975701243    0.04577307742760
H         5.37981048313927   -0.22031204621152   -4.99182568690948
H         4.10072697970606   -1.47776197648597   -5.20759031992061
H         6.56014313977536   -1.85172789922752   -3.75609111799021
H         3.83812016776439   -3.22626324192906   -3.51787838769084
H         5.08273403403680   -2.92595562784458   -2.28497703705545
H         4.70554127531003   -5.45937769569578   -2.83974650482785
H         6.32343060920337   -5.02062984310954   -3.29087029121665
H         4.10733870876380   -5.72072430735194   -4.93336072961960
H         5.87954299450705   -5.81886845466859   -5.24721703412813
H         4.04771981117309   -3.42198076019593   -5.80866136577799
H         5.13931532853786   -4.32954449309543   -6.92935685117880
H         6.44856352918351   -2.41217748597836   -6.30892169218370
H         6.99463068859564   -3.69222265011966   -5.13595655119782
