35
 energy: -44.219090223361 gnorm: 0.105400737588 xtb: 6.4.1 (025e99ea0bd20707e8cccc6e19fe66a0758c6dd1)
C         0.74725463364977    1.02387634929216    0.17163672990357
O         2.16820349593333    0.98415314585963    0.17030200109605
C         2.70339371880544    0.53031651627299   -1.00369578997593
C         2.07701668241244    0.36981580499262   -2.24044983696381
C         2.68043422813469   -0.28613811644497   -3.31799545441739
C         3.95967337525397   -0.85064353925144   -3.21918066779917
C         4.65376930198678   -0.44458297726766   -2.07166882587317
C         4.01297026915806    0.06311807896827   -0.92908811252488
C         4.73154510937966   -1.21917174929602   -4.46939997446099
C         5.74893816730764   -2.37453851740812   -4.27301982194003
C         5.05653068859980   -3.38693553396698   -3.34550863731511
C         5.47975949584563   -4.83037443549387   -3.60085725781817
C         5.09154755740518   -5.23829882013293   -5.00878018009225
C         5.28370939681690   -4.09920362898818   -5.98927781949704
C         6.25397552833591   -3.00594550671955   -5.57985008345848
H         0.24067703236935    0.05684561311061    0.08757101223039
H         0.46118780986461    1.65644876868949   -0.67453683975053
H         0.48731549816599    1.58537624021572    1.07504986316056
H         1.03066684798678    0.66219975037158   -2.25198144186483
H         2.07322465044091   -0.47108815145599   -4.20233878057423
H         5.67171955809192   -0.81062432597711   -1.98308267583950
H         4.51562674775854    0.14970449539700    0.02962552466612
H         5.27716659812166   -0.33855855302883   -4.83821282185762
H         4.00823544659928   -1.48458632557748   -5.25236926058984
H         6.62170087637528   -2.08697707122719   -3.66286501693263
H         3.96793909421297   -3.46042566727026   -3.44384678547134
H         5.18050088242387   -3.16727080598643   -2.27480113158029
H         4.93130769311362   -5.44957601416218   -2.87949507353808
H         6.55705459836026   -5.02794537932243   -3.52565336059220
H         4.06639141218986   -5.60994824436757   -5.13381205248688
H         5.71873089223954   -6.06246742624459   -5.36708861870373
H         4.30476947544818   -3.63049455354734   -6.13712648711302
H         5.57677879020650   -4.50557053989158   -6.96599565061939
H         6.17566286543729   -2.17323603433648   -6.28607765434313
H         7.26634212574222   -3.42649259226937   -5.48646920765935
