35
 energy: -44.213556420107 gnorm: 0.100621653660 xtb: 6.4.1 (025e99ea0bd20707e8cccc6e19fe66a0758c6dd1)
C         0.74771091846636    0.91344970683962    0.21351297930046
O         2.13454821641989    0.61183749991428    0.13358948936567
C         2.74175549698767    0.40689429177675   -1.07470049378143
C         2.10290898210722    0.28339355872679   -2.30932268562471
C         2.80542098953132   -0.11171847588252   -3.45206334750345
C         4.15860510934460   -0.43726476604160   -3.28534234843390
C         4.85769202560542   -0.17293603665641   -2.10008052992158
C         4.11826377629905    0.22324536400383   -0.97306650007153
C         4.92057145157873   -1.01243939342685   -4.46144982213763
C         5.57850875963180   -2.38498563724112   -4.15852822989295
C         4.78484499812291   -3.44938120156818   -3.38276231910019
C         5.32531831930570   -4.86028209063821   -3.59510325636476
C         5.01433418215766   -5.31499113160325   -5.00786166555347
C         5.23191623854794   -4.19550449530957   -6.00548251958468
C         6.10087969796509   -3.10016181387211   -5.41439227645942
H         0.08852231294013    0.20314103590557   -0.29616174908783
H         0.53614948802674    1.91403082314002   -0.17644982892769
H         0.60328679122682    0.84891745658550    1.29701795462380
H         1.02624146003294    0.38471168916089   -2.41416073729410
H         2.24136488149878   -0.34344368755918   -4.35379348542485
H         5.93256800388921   -0.18155175000693   -2.25049296121054
H         4.42215623892474    0.35870980419997    0.06066042133078
H         5.80498394876534   -0.38546339707472   -4.64562627374230
H         4.23045674284643   -1.27768768133471   -5.27388302552172
H         6.48619880493956   -2.06723304700738   -3.61831780842342
H         3.70114187979304   -3.37836611275649   -3.52645385604549
H         4.93446977046680   -3.25572466438941   -2.31031402681873
H         4.87935899792257   -5.52192097464071   -2.84149351239942
H         6.40291872052900   -4.94636989219284   -3.40373735651374
H         3.97277855197574   -5.65009283526802   -4.92085532308582
H         5.65367504513344   -6.12091280982749   -5.38565959254532
H         4.26354997149250   -3.83856457942456   -6.37254036843802
H         5.61663411203682   -4.55772102109443   -6.96766379318414
H         6.40242863986307   -2.31087267632826   -6.11037087806381
H         7.04407022339411   -3.58857584113090   -5.12749623048616
