35
 energy: -44.211855301755 gnorm: 0.108013740128 xtb: 6.4.1 (025e99ea0bd20707e8cccc6e19fe66a0758c6dd1)
C         1.17551384118893    2.01462939429163    0.33175909072210
O         2.44410877640717    1.37348428654261    0.34835092190736
C         2.80858815984480    0.49477100473144   -0.63434182383022
C         1.97330771399124   -0.00426793050186   -1.63480984683033
C         2.52099120895627   -0.61875486486724   -2.76527068739688
C         3.87731153622210   -0.93975680387210   -2.91439065385313
C         4.63772883852800   -0.57986283936751   -1.79381940544495
C         4.16650004319794    0.20020875056961   -0.72456431659170
C         4.53076555383481   -1.28633902309792   -4.23633098660430
C         5.23483533883166   -2.65975246216631   -4.39926531857306
C         4.13057893283520   -3.72904792873681   -4.35593055883065
C         4.75300088493235   -5.11854273948716   -4.25725675355891
C         6.01982727629686   -5.29569311086249   -5.07158250308429
C         6.12969227346867   -4.29981547836575   -6.20824300247366
C         5.98827362913536   -2.86871708588151   -5.72221938794247
H         1.10368172690958    2.92866846122440    0.93026481792053
H         0.47971474242271    1.27303402660027    0.73659454204188
H         0.93966312831419    2.35296586435076   -0.68259225895699
H         0.91846208890658    0.25347640434966   -1.67138904851700
H         1.81191883839764   -1.05525636309263   -3.46645259166248
H         5.72114561974776   -0.52239539118324   -1.82483875740327
H         4.79568811013230    0.68987962670690    0.01275347657725
H         5.30290902530497   -0.51192076247543   -4.35155342915942
H         3.89671814851388   -1.09442512757631   -5.11258192127512
H         5.96521151189022   -2.75422627444510   -3.57809504862446
H         3.61120328804770   -3.71242958225753   -5.32033485056108
H         3.31617952036107   -3.55260447609298   -3.63783788263901
H         4.00218316652444   -5.88041240072057   -4.50302240945653
H         4.97826605406948   -5.43866261686441   -3.23156990119652
H         6.10256232201210   -6.30245983880541   -5.50085754374985
H         6.94513067005446   -5.18803894695646   -4.49432867554048
H         5.17812761142239   -4.50642481059843   -6.70994817666355
H         7.01376083788248   -4.54043403350990   -6.81283125294094
H         5.53359689691998   -2.27301469688785   -6.52015614830358
H         7.01553645423445   -2.48803845877654   -5.62082480975500
