35
 energy: -44.218379347886 gnorm: 0.108124471716 xtb: 6.4.1 (025e99ea0bd20707e8cccc6e19fe66a0758c6dd1)
C         0.89594636476431    1.05261021832666    0.42518633252907
O         2.23574720741817    1.22976832145220   -0.01552226650461
C         2.85818081916229    0.55654625963706   -1.03041906276070
C         2.13226125996878   -0.37077218926522   -1.77927853165706
C         2.77683937772623   -0.91806126070226   -2.89304984736682
C         4.07105386279621   -0.56248949944309   -3.29735306183003
C         4.69435914457828    0.42490763128475   -2.52277243322571
C         4.13715714437137    0.99356770799968   -1.36517748591530
C         4.74180449321786   -1.35865102129553   -4.39774741010347
C         5.43730394431507   -2.64797551766587   -3.88544962262465
C         4.28140266911667   -3.65310026394172   -3.75028555865648
C         4.76312985462486   -5.07541319677779   -4.02011188427134
C         5.35490421024367   -5.25991138851484   -5.40399096090890
C         5.79367768110253   -3.91630396324858   -5.94991822563028
C         6.50193442176391   -3.06380058475278   -4.91267614148450
H         0.62144313425901   -0.00044311447840    0.54586360489896
H         0.22614156970691    1.65447763358513   -0.19699446747592
H         0.88174527554023    1.56015432827187    1.39534254341224
H         1.07229375619588   -0.58276429852012   -1.66974522180233
H         2.31251938739759   -1.64090316921664   -3.56154039782799
H         5.63870120196152    0.71969745742418   -2.96928504847644
H         4.69188037772155    1.64447193697554   -0.69592538118923
H         5.49311800147732   -0.67947834203138   -4.82606715874095
H         4.03304674474589   -1.52561408874291   -5.22021227186173
H         5.89550875665339   -2.50898293247026   -2.89175720101903
H         3.38414877001012   -3.42577376743122   -4.33625565631034
H         3.86313002887089   -3.62820375340068   -2.73319955971983
H         3.95544191232569   -5.77145552715974   -3.75984540873405
H         5.62271515120993   -5.19184403166398   -3.34719909476991
H         4.61383093458680   -5.55413338039637   -6.15827552673260
H         6.09424448496514   -6.06499982700159   -5.32521070377344
H         4.93119325638781   -3.32990388132882   -6.28477096564220
H         6.44242487476970   -4.19669595843282   -6.78986397736391
H         6.93847591371337   -2.21987076388335   -5.45628381531189
H         7.27262815103138   -3.68428794326068   -4.43153938081346
