35
 energy: -44.223404268620 gnorm: 0.098819632327 xtb: 6.4.1 (025e99ea0bd20707e8cccc6e19fe66a0758c6dd1)
C         0.93738260674457    0.90157161674626    0.46343122728637
O         2.22933328243615    1.30874028148902    0.03244108718088
C         2.79909609233921    0.75168387656246   -1.07919084759693
C         2.08799124274896   -0.17694998308346   -1.84053063840777
C         2.71620990906722   -0.81403339183247   -2.91522076955245
C         4.07519314089536   -0.54832983593007   -3.13305032220860
C         4.83100381194186    0.36724314668785   -2.38879626799186
C         4.11187347108969    1.07563932288954   -1.41160598677553
C         4.82386024666189   -1.27336999175572   -4.23235086037596
C         5.37360482869731   -2.68427127486920   -3.89225581718293
C         4.30713352077912   -3.78225373366838   -3.74485736868333
C         4.92151574763280   -5.15472745230121   -4.00310487726809
C         5.21664983936867   -5.30295377378313   -5.48306521281436
C         5.73023296079523   -3.99527699400552   -6.05056276018187
C         6.34272264784794   -3.05928759094223   -5.02438490928348
H         0.94483595763253   -0.17955115781737    0.63650447191831
H         0.16847159287633    1.16126345016185   -0.27095818135599
H         0.74861610198999    1.54540001031280    1.32879703160573
H         1.06474263491978   -0.51631249126409   -1.70538369222138
H         2.11598585397893   -1.45534369911795   -3.55820231515242
H         5.87524106748520    0.53493137570423   -2.63273415757501
H         4.50141903767283    1.92993755651761   -0.86596750021029
H         5.72438749623048   -0.67881784529258   -4.44392530611700
H         4.07836324120430   -1.27969765186524   -5.03910785772160
H         5.99315259704183   -2.59700130140570   -2.98382874996858
H         3.62298848338888   -3.65788030135996   -4.59136765768133
H         3.85849485733005   -3.59066848423196   -2.75892927373591
H         4.30594099763891   -6.03876402451780   -3.79305621255922
H         5.83750608708852   -5.24299631799061   -3.40441885946339
H         4.29948418674562   -5.59148390289564   -6.01246007160978
H         5.88742960810916   -6.16249718598316   -5.59368794517166
H         5.00557421482870   -3.43210719319670   -6.64854292144304
H         6.57620401034127   -4.20128890488123   -6.71906372052508
H         6.68044795522255   -2.12772731830600   -5.48960786366049
H         7.21790014904899   -3.47269502908451   -4.50129351919021
