35
 energy: -44.225179403366 gnorm: 0.098717592224 xtb: 6.4.1 (025e99ea0bd20707e8cccc6e19fe66a0758c6dd1)
C         1.87565860130585    1.74080575617927    0.88101040893271
O         2.93604267339314    1.79982685328102   -0.06385863434864
C         3.02187915464290    0.83130766721742   -1.02576807190538
C         2.13329891748249   -0.20851037947352   -1.30302761520533
C         2.24694291438692   -1.14514025153323   -2.33516248364407
C         3.32478425224369   -0.96864081170918   -3.21379184013737
C         4.31066467502777   -0.01262974510937   -2.93536695461249
C         4.16530350277784    0.82971869407771   -1.82038098433352
C         3.57681514239736   -1.81543449685499   -4.44426664336406
C         4.34429076928016   -3.12327833375872   -4.11403665106411
C         4.06942077720957   -4.17002982609242   -5.20647000947266
C         4.99783925701085   -5.37646251348154   -5.10448616508948
C         6.44134836572683   -4.93403132423385   -5.24553178123321
C         6.67909493352536   -3.44655159521198   -5.08206840517601
C         5.84377429952183   -2.81303027928204   -3.98427473478133
H         2.17217101466431    1.03518795636859    1.66396651618354
H         0.90092733902749    1.41483105390889    0.50467112138242
H         1.78686138834753    2.69240432624193    1.41540818661831
H         1.22192933174595   -0.25583980285552   -0.71342203077494
H         1.43802963526354   -1.84703489017239   -2.53003765758178
H         5.26261288341484    0.10456244672141   -3.44341922041161
H         4.94873638203333    1.57288539605715   -1.70536458067639
H         4.04988291038333   -1.13343984215932   -5.16558176959252
H         2.62456061043641   -2.02074043371374   -4.95193135205448
H         3.95157469597369   -3.52443222763335   -3.16453948719758
H         4.07163843157838   -3.63767360313004   -6.16391180250211
H         3.03155312411517   -4.51647515322099   -5.09314685077586
H         4.84496043737853   -6.09839936092769   -5.91689531771800
H         4.83753383638322   -5.87156209499994   -4.13782530425029
H         6.88975255071486   -5.26708445819808   -6.19036546156079
H         6.95487065889406   -5.50418904562811   -4.46309150105176
H         6.39224202080243   -3.10971647638657   -6.08413043196644
H         7.75064588329034   -3.31389730096130   -4.88412180055232
H         6.01065077534904   -1.73123147313538   -3.97166891487765
H         6.27272043892276   -3.25349441261582   -3.07188089029274
