35
 energy: -44.225710874818 gnorm: 0.088026720534 xtb: 6.4.1 (025e99ea0bd20707e8cccc6e19fe66a0758c6dd1)
C         1.73699302999307    1.65781889534591    0.57962981766899
O         1.31430737441104    0.62969874753403   -0.30636181834893
C         2.22243711504268    0.28071149578639   -1.26770220632283
C         1.84883832374452   -0.56519165968864   -2.31294909235616
C         2.71157895383257   -0.97289789713214   -3.33517562323993
C         4.07306519786893   -0.64390817903813   -3.28036218091559
C         4.51513422782813    0.07998337667629   -2.16501750068349
C         3.59475742301327    0.50390028758770   -1.19183949432957
C         5.00007892517498   -1.22674059217799   -4.32707096133855
C         5.66336437009301   -2.53666248096270   -3.82439487050692
C         4.72792333055137   -3.62652827002855   -3.27503573347198
C         5.12136119263430   -4.95568752315462   -3.91251807557362
C         4.85095796971298   -4.94664360525977   -5.40454960170564
C         5.62639564714356   -3.83234066746098   -6.07750206802621
C         6.42458901877470   -3.03263584541567   -5.06378598235401
H         2.52614107811308    1.34183848664239    1.26972987909201
H         0.89003909429438    2.03682059594871    1.16016280035056
H         2.14750573067937    2.45980007486706   -0.04271356023710
H         0.82095802343126   -0.91571064998965   -2.28027091836474
H         2.30105555334649   -1.51184148213390   -4.18722225221543
H         5.59815196902220    0.15105620171117   -2.15620157624111
H         4.04931035099121    0.95172120243041   -0.31312984546580
H         5.80649558139977   -0.51521269721626   -4.55647357219977
H         4.36226924059466   -1.54324352021028   -5.16354414230542
H         6.40215554324439   -2.31817212434766   -3.03499966465289
H         3.72407702882469   -3.29908015451692   -3.56688019033549
H         4.76214733456897   -3.76413201868296   -2.18419674793027
H         4.64038010449883   -5.80078202846110   -3.40355260874820
H         6.18038128486031   -5.09463041323240   -3.65869537888854
H         3.77256779463923   -4.92457463466161   -5.60774649512530
H         5.11354419361205   -5.90235800429171   -5.87215651712219
H         5.05629619061332   -3.17153479821777   -6.73946355414792
H         6.37936680444322   -4.28376950696090   -6.73647695228414
H         6.88666726051027   -2.16752496059739   -5.54995691798231
H         7.21905086796025   -3.70105893217798   -4.69977098294860
