35
 energy: -44.221738185325 gnorm: 0.088413955272 xtb: 6.4.1 (025e99ea0bd20707e8cccc6e19fe66a0758c6dd1)
C         2.39495552886373    1.72659777987678    0.95114765441334
O         1.66067628164651    1.30640022373976   -0.19119353230619
C         2.38328148678735    0.64692758871892   -1.14702021742859
C         1.59865254949230    0.44646661488921   -2.28361254060661
C         2.05524027994051   -0.42562540214913   -3.27682753688142
C         3.33888757997939   -0.98682236372530   -3.23001801023793
C         4.14781333367364   -0.63204897501584   -2.14226218170822
C         3.68905107688637    0.16776486778096   -1.08221054642362
C         3.93443304882287   -1.54442977060718   -4.50635923608335
C         4.98695310197366   -2.64835862892383   -4.21988271819493
C         4.39204139984045   -4.06355269876288   -4.13067147417660
C         5.41238813435036   -5.15607256393150   -3.82549236313502
C         6.51285519924663   -5.13259604589870   -4.86845873899114
C         6.24829489360649   -4.07827379986221   -5.92404014079601
C         6.07281449174178   -2.70299685277494   -5.30591336729027
H         2.72261766867388    0.88036242606432    1.56381363651140
H         1.73050183087773    2.39708363695725    1.50517094136007
H         3.29995389659234    2.25408407917614    0.63217754792646
H         0.60536578655896    0.88557245093039   -2.31581211853844
H         1.45644455800432   -0.47123286399838   -4.18475746857906
H         5.22125612721196   -0.79007890130876   -2.17061026608826
H         4.38229980644036    0.34965864106210   -0.26635918921087
H         4.54568764289420   -0.75253598613313   -4.96295247703570
H         3.13067557510816   -1.76520892598870   -5.22182632912368
H         5.55995510312303   -2.46820932165159   -3.29472859283836
H         3.89574815217634   -4.28014747798445   -5.08297529410912
H         3.56294679152605   -4.10996971895772   -3.40922614967317
H         4.93578269312536   -6.14422997243480   -3.85656590833987
H         5.71648908709065   -5.02842771609184   -2.77836102186442
H         6.49246311417738   -6.09679224054478   -5.39249237116466
H         7.44128121098220   -4.97619157683451   -4.30760176322693
H         5.31991250499943   -4.34350818585048   -6.44136755831370
H         7.15073325350038   -4.10006462971357   -6.54864531546053
H         5.89832861040089   -1.90898749310180   -6.03898848913808
H         7.03668065047966   -2.51015840308609   -4.81170558599573
