35
 energy: -44.225022250996 gnorm: 0.088895193077 xtb: 6.4.1 (025e99ea0bd20707e8cccc6e19fe66a0758c6dd1)
C         0.86794974113950    1.12174818860941    0.48844340669558
O         2.17323785165367    1.02665850279585   -0.06640456228889
C         2.48378704660573    0.34113431175081   -1.20845659745173
C         3.86287941011640    0.15255711869367   -1.30951173160565
C         4.36619608787106   -0.48736569735077   -2.44646553429492
C         3.49167388511001   -0.91669130321907   -3.45432164279765
C         2.11262339564887   -0.82100106759677   -3.22519099969270
C         1.55919069356038   -0.24222025839554   -2.07080828419830
C         3.92770571947766   -1.39867985585806   -4.82260909692368
C         4.90513000504622   -2.59523621003463   -4.96896750825090
C         6.36593360242214   -2.33894087138478   -4.56274299571489
C         7.29735340489224   -3.54307635517969   -4.46097719094048
C         6.62457032545177   -4.80541233524291   -4.96419539897285
C         5.34932147399036   -4.99083193522031   -4.16720130704575
C         4.45042325656718   -3.77012691127587   -4.08895815848503
H         0.17126056652654    1.61384969823326   -0.19806708141586
H         0.97155825452326    1.70750749610524    1.40721601765557
H         0.44725126843787    0.19778575644415    0.89870184065427
H         4.54169113637770    0.51032113261177   -0.54029857922708
H         5.44366334172400   -0.52971883729245   -2.59560849566188
H         1.38284838662927   -1.25006761885763   -3.90444560214240
H         0.48422293061245   -0.12555581588588   -1.97017884415246
H         4.20587580196942   -0.48553854416070   -5.36850255172163
H         3.03746875326606   -1.67759125739002   -5.40256533365300
H         4.90588958625435   -2.87931092073281   -6.03479872847736
H         6.42324098376685   -1.84685774486670   -3.58566935246984
H         6.80533695322706   -1.62679969721078   -5.27675658302032
H         7.57792261187893   -3.74070681599997   -3.41848187030418
H         8.20537688615329   -3.32343035357416   -5.03760846885169
H         7.36468915926904   -5.61053824554512   -4.87093359164601
H         6.42000464942006   -4.68526853225005   -6.03410946711332
H         5.68902795945364   -5.18697158836083   -3.14446012063444
H         4.73625224109005   -5.82769464160009   -4.52610015275780
H         4.33040937515409   -3.34546006503207   -3.08718470365508
H         3.41840122448158   -4.01488006739968   -4.38134896295151
