35
 energy: -44.223357022577 gnorm: 0.096688998003 xtb: 6.4.1 (025e99ea0bd20707e8cccc6e19fe66a0758c6dd1)
C         1.30113294602895    1.21597379430774    0.69246518828055
O         2.60894650577775    0.73690503850958    0.40822549988549
C         2.93704096295187    0.44583311851991   -0.88726600823917
C         2.18742510417303    0.57112534882403   -2.05775615350914
C         2.62086490192538    0.01771582684774   -3.26662368292557
C         3.87281481208582   -0.60877996996153   -3.33739082154907
C         4.70026402618874   -0.66437929027152   -2.20793330135558
C         4.19130114718541   -0.14733216751935   -1.00481504845373
C         4.34904706554196   -1.12369668515620   -4.68004154648840
C         4.98754186832685   -2.53646493548956   -4.60978174258140
C         3.96709408869547   -3.64335168727947   -4.29650728448680
C         4.75551624770023   -4.81249514026593   -3.71398218337933
C         6.15313054620875   -4.90165611099118   -4.29543068870694
C         6.10897806942240   -4.45836555056186   -5.74366536879399
C         5.72347153240530   -2.99631627993998   -5.87804320420122
H         1.10040710121141    0.94534570076465    1.73424536083568
H         0.59768653578290    0.73878253930523    0.00294110893599
H         1.29322178568734    2.31032126134728    0.65576636058573
H         1.17093295495763    0.95314078695874   -2.02201750348578
H         2.16471867852647    0.35437470978120   -4.19590541360614
H         5.58987927955023   -1.27547496316403   -2.09302777349451
H         4.85490946812904   -0.14768950167672   -0.14521254550282
H         5.18301390361281   -0.44452216218869   -4.90901014185522
H         3.50627460086237   -1.05911180038334   -5.38162977484333
H         5.73982285200833   -2.38108035431454   -3.81818577236865
H         3.49328131978548   -3.95704292690762   -5.23309797340155
H         3.15143704683715   -3.31200312846569   -3.63700179602854
H         4.22925078429539   -5.74710302299942   -3.94663244531748
H         4.83955536415154   -4.68673824572339   -2.62661045580474
H         6.51233622870937   -5.93880192343367   -4.29653896852263
H         6.87071342871355   -4.28143905010880   -3.74642853130325
H         5.23082139899380   -5.00383483154992   -6.10584615595119
H         6.91492966705582   -4.73073456101802   -6.43739341518556
H         5.12444951007923   -2.80983954954204   -6.77509078764545
H         6.67881222102773   -2.45211507399348   -5.91848063922045
