35
 energy: -44.225203312679 gnorm: 0.090300628770 xtb: 6.4.1 (025e99ea0bd20707e8cccc6e19fe66a0758c6dd1)
C         0.96090450421870    1.27976260737180    0.49528854237013
O         2.33709868257276    1.16028562384055    0.15989294506635
C         2.79616410272867    0.56551297030871   -0.98298566067729
C         1.95897510840642   -0.10550499802938   -1.87546463854486
C         2.55432199363621   -0.78731126185904   -2.94138919472476
C         3.91887856358338   -0.65310229902635   -3.23269120600883
C         4.71491848018916    0.11744226080597   -2.37477553540115
C         4.14873472992530    0.75174039470453   -1.25630502035241
C         4.53130539307884   -1.33139100404844   -4.44079101751256
C         5.34472962015609   -2.58723795054619   -4.02882540758471
C         4.32638306488372   -3.72829639718616   -3.86879804048721
C         4.97356117078032   -5.10745422796588   -3.95201814606358
C         5.50755263614643   -5.35141239509448   -5.35012232613880
C         5.98311070428629   -4.05892561626970   -5.98191509332113
C         6.42337623276863   -2.92920102405675   -5.06859731031928
H         0.74732911257611    0.28733327361239    0.90553959649342
H         0.39801808487977    1.54828295634409   -0.40418213637068
H         0.88393051757223    2.04047885970954    1.27911987416134
H         0.87433832925699   -0.12555528870703   -1.81521207134132
H         1.91858793259599   -1.16730815245406   -3.73914710194746
H         5.77139056798839    0.28099286749505   -2.56232398977762
H         4.74659113421852    1.43103776411978   -0.65595896482565
H         5.13406076464393   -0.54995684239180   -4.92581879393224
H         3.78579727914247   -1.76309066977099   -5.12234492208171
H         5.90006166377377   -2.30703168081537   -3.11789950860662
H         3.62998126818950   -3.70049386019532   -4.71399293512165
H         3.79451663627523   -3.62824997901858   -2.91112138063561
H         4.17927184857038   -5.80724897184357   -3.66225071145608
H         5.78784061805129   -5.08060443216577   -3.21616305557566
H         4.71417832039625   -5.76572846950865   -5.98541814110191
H         6.31741333454539   -6.07987102033098   -5.22982500576423
H         5.09118263942543   -3.76550426230617   -6.54604188107554
H         6.85205647911518   -4.36306046925483   -6.57977518576131
H         6.59751077592766   -1.99575696126808   -5.61325744779056
H         7.34709762781500   -3.25736240492827   -4.56908268273697
