35
 energy: -44.222077852559 gnorm: 0.080987014145 xtb: 6.4.1 (025e99ea0bd20707e8cccc6e19fe66a0758c6dd1)
C         1.77672112744273    0.93167410986128    0.62741205416655
O         1.33132494008620    0.26006689841786   -0.54358810453165
C         2.30225735307369    0.05853752089826   -1.48557707815370
C         1.90898753869881   -0.74568095309718   -2.55620341278831
C         2.79253413252257   -1.01275478312630   -3.60668417614935
C         4.12733680096942   -0.58983005681321   -3.54095721609453
C         4.51437303720639    0.26061359609775   -2.49674158726147
C         3.61908796625970    0.50905480514549   -1.44288389422001
C         5.07377289111217   -1.26902416550414   -4.50925541503105
C         5.94456893204068   -2.35777114830807   -3.82744134246111
C         5.20965197671752   -3.31150534891691   -2.87091587463238
C         4.41783440536979   -4.37826858015410   -3.62117085949781
C         4.32676108849399   -4.26390028078978   -5.13046980556898
C         5.67350298923125   -4.00625000922369   -5.77525057190950
C         6.63108761274329   -3.21933095256376   -4.89886547128812
H         2.57016173747783    0.34654279424750    1.10376244883323
H         0.96902797006884    1.00722227665725    1.36220184737467
H         2.02044153213863    1.98473765930628    0.45230267818911
H         0.93023587530180   -1.21731423228840   -2.56495331931214
H         2.47553468532950   -1.80098595474432   -4.28725458041214
H         5.56982985180013    0.50903722726491   -2.44823284694603
H         3.98962454595975    1.05439373608760   -0.57998143078560
H         5.82603386649362   -0.64644090233536   -5.01492212258514
H         4.44049454872938   -1.72175169094724   -5.28427735025850
H         6.76814779908737   -1.78929624935443   -3.36349160480270
H         4.56877159066988   -2.70191559771878   -2.22456031064071
H         6.02064635947522   -3.77420920082813   -2.28934126852276
H         3.38278760962162   -4.42682858147330   -3.25937888679193
H         4.84510289539014   -5.37583368238974   -3.45515837256240
H         3.57789622482156   -3.50265013973966   -5.38424337362692
H         3.81990988962793   -5.18294026308804   -5.44585074374752
H         5.48657286073307   -3.34917296956312   -6.63150852757304
H         6.20447864184930   -4.87067280044258   -6.19458283976047
H         7.06355683803849   -2.49747903660109   -5.59900510165616
H         7.43768910924836   -3.80665227968675   -4.43527766709200
