35
 energy: -44.226020560817 gnorm: 0.097272290038 xtb: 6.4.1 (025e99ea0bd20707e8cccc6e19fe66a0758c6dd1)
C         0.91751692438359    1.02013528046480    0.27244193530017
O         2.29325528816047    1.30387179987634    0.05446733724130
C         2.83194174291584    0.62667418204998   -1.00472450462328
C         2.10547149508946   -0.15931711625330   -1.90034043523154
C         2.68818389456326   -0.85838344767798   -2.96205855503391
C         4.01758448650711   -0.55504517467908   -3.28696388454584
C         4.80834121283251    0.20139195819321   -2.41178137903936
C         4.20595654265499    0.65928438235016   -1.22799859439589
C         4.74342012399360   -1.19803019462277   -4.45074230855150
C         5.38402237668865   -2.54637134855394   -4.02632381053043
C         4.34879258652156   -3.64757137348897   -3.74293252700912
C         4.88810288616848   -5.06998521665043   -3.86008483394461
C         5.29593621657883   -5.28485663978981   -5.30468166875981
C         5.73513543822705   -3.99578451739794   -5.96893821303280
C         6.44346974058814   -3.04395717451537   -5.02207603365020
H         0.82461546100045   -0.06259302534935    0.40625184429824
H         0.22241939462525    1.38493587234428   -0.49028459079361
H         0.71518167380175    1.50371135475115    1.23380575718409
H         1.02742158244215   -0.28332489295060   -1.84649083365477
H         1.92929070077540   -1.42277578479361   -3.50105346194091
H         5.83882618803443    0.50359824302455   -2.56935220663939
H         4.77051074354341    1.28527052492763   -0.54337279557986
H         5.53300688527547   -0.52183962999521   -4.80924529137866
H         3.97908118806542   -1.44906919681537   -5.19869156115813
H         5.82069603016885   -2.37624207826444   -3.02779120030705
H         3.51075059671252   -3.62267620572043   -4.44803443743391
H         3.97770328643205   -3.53413446053442   -2.71363151929303
H         4.14158985565779   -5.83092078845623   -3.59880198681359
H         5.75384547597294   -5.25209876317172   -3.21002401642629
H         4.44302766560654   -5.59754977831436   -5.92069416156387
H         6.07615264554876   -6.05200494442631   -5.36586636445091
H         4.82856331859672   -3.42461278767125   -6.19644786971881
H         6.37673914539138   -4.17508137781228   -6.84140527638099
H         6.77139077247606   -2.11445843462466   -5.49830624205305
H         7.29210404296801   -3.52203999363231   -4.51048771530111
