35
 energy: -44.217669396669 gnorm: 0.094973687508 xtb: 6.4.1 (025e99ea0bd20707e8cccc6e19fe66a0758c6dd1)
C         0.86143437726051    0.86730550203703    0.27565225949152
O         2.25651222208147    0.60567936381298    0.19828979172150
C         2.86709584571718    0.32050024105973   -0.99188985763722
C         2.13947235979526    0.01438926956204   -2.14277186672380
C         2.79743480272550   -0.46510103254967   -3.27972716036052
C         4.19816271409462   -0.51832472358800   -3.28320679409224
C         4.90357947857850   -0.23203503015740   -2.10682965470550
C         4.25431837280666    0.21100455241716   -0.94233387892229
C         4.91137778680260   -0.88296350624616   -4.56890122628034
C         5.57998964803062   -2.27809031929531   -4.44599661708482
C         4.64508821070197   -3.15119917581678   -3.59259573250655
C         4.96481871515337   -4.64017303038241   -3.50001781397371
C         5.46074107093363   -5.30494851752060   -4.76946349526549
C         5.13686252167921   -4.35846836913990   -5.90749586016594
C         5.86181580482028   -3.03363276005071   -5.75415276249385
H         0.94194937930499    1.26028419504547    1.29443655605824
H         0.13903548149981    0.04535000902017    0.25283116731798
H         0.62013323076597    1.59004594453156   -0.51074826137713
H         1.07705359452034    0.20513963192445   -2.26666698501690
H         2.26328494861966   -0.77632670834358   -4.17571579049779
H         5.97016713882950   -0.43011546072631   -2.07202436410910
H         4.71114743294078    0.32393424770172    0.03636254064808
H         5.61651318399590   -0.04768868207097   -4.68850630395451
H         4.15493068985597   -0.92321134123272   -5.36440771936706
H         6.49006789209781   -2.27800954989062   -3.82273679425348
H         3.65156280553527   -2.97280319285187   -4.01825404144480
H         4.59274783399253   -2.73834874716574   -2.57433703420325
H         4.01230599747505   -5.04150972825565   -3.13093550019097
H         5.75967267050020   -4.78391305308143   -2.75651217267143
H         4.84601193273978   -6.19865394109627   -4.93709430688274
H         6.53162265760872   -5.53292999957903   -4.72218944917687
H         4.06711391750259   -4.20726568540044   -6.08817919587392
H         5.46511204717257   -4.85044519326303   -6.83227286633212
H         5.61780640931178   -2.43797541652456   -6.63956061442470
H         6.94624432667032   -3.17810990814155   -5.87080225606642
