35
 energy: -44.218573625941 gnorm: 0.085142857131 xtb: 6.4.1 (025e99ea0bd20707e8cccc6e19fe66a0758c6dd1)
C         1.83621957673345    1.49850417248400    0.80389031662345
O         2.09618693851114    1.80815561873470   -0.55890399782523
C         2.48367924422433    0.69989505943438   -1.26052735325343
C         3.44106518215234    1.00742018851866   -2.22826167995504
C         3.73440842124603    0.04127170574145   -3.19573245562702
C         3.21510782299736   -1.25687603488476   -3.09561826487722
C         2.23541654107275   -1.54120567334461   -2.13499378552990
C         1.93788991031591   -0.57694643781973   -1.15746809451425
C         3.57113653990605   -2.27771682473506   -4.15664368769728
C         5.08175763844614   -2.33260072352206   -4.50812314638976
C         5.83731508140285   -3.10022247301841   -3.41060657524912
C         6.77260195732747   -4.22368624782109   -3.84753792394508
C         6.11936396022021   -5.21593377757352   -4.78991933464259
C         5.40666913258281   -4.46825642474298   -5.89846987623003
C         5.54670277681982   -2.95818988635201   -5.83251246287006
H         0.76144382712185    1.30930122413504    0.89274802150074
H         2.18258741793353    2.35356100496674    1.39287158740671
H         2.47808529727962    0.65023221977558    1.06359950651205
H         3.74819531534820    2.04131241529343   -2.35943819165439
H         4.40481991438476    0.23876940564652   -4.03030791139569
H         1.61724913155986   -2.43335068658777   -2.13667205853253
H         1.00057316468756   -0.80292116688887   -0.65780288572373
H         2.98200569254447   -1.95844201792280   -5.02853460116539
H         3.26215832351032   -3.27659516198182   -3.81983929925204
H         5.44724276201555   -1.29392915452112   -4.44272273268364
H         5.17660090532968   -3.42927694516172   -2.60111118994224
H         6.51238757904453   -2.37704249328704   -2.92964544907843
H         7.10439473151140   -4.76543023831613   -2.95255167949446
H         7.66889238966676   -3.78855030870349   -4.30859628876337
H         5.36837616237011   -5.82252802715933   -4.26765299582990
H         6.80588395539157   -5.96922566801165   -5.19270884092732
H         4.32739776711566   -4.64899764111694   -5.84971819190344
H         5.77557234675749   -4.82554193484442   -6.86865487832534
H         4.97477226263649   -2.47599582852869   -6.63168684542184
H         6.60935355497254   -2.74584576831975   -6.02264206020848
