35
 energy: -44.213674583599 gnorm: 0.101863849222 xtb: 6.4.1 (025e99ea0bd20707e8cccc6e19fe66a0758c6dd1)
C         1.07550968023273    1.08848566531595    0.59720425903627
O         2.08788243697428    1.65700434035917   -0.22289530548342
C         2.68580033272058    0.84463455371724   -1.14659255097483
C         2.10603851414103   -0.31137802574862   -1.67116895586523
C         2.78264276100075   -0.99286004109074   -2.68767365990389
C         4.02422900856547   -0.51718433287064   -3.13161033779781
C         4.62725204305111    0.60144931222223   -2.54130552150021
C         3.95880045657964    1.27833002720271   -1.50743926374630
C         4.69016460079621   -1.33635161774640   -4.21795380341842
C         5.22547784725775   -2.75256678706384   -3.87692514098928
C         4.18042798050454   -3.88060167972649   -3.88473161775879
C         4.77694027078379   -5.22111670675208   -4.30310225305500
C         5.42280197506240   -5.31308899916289   -5.67195635488138
C         6.13340888015087   -4.01458948052761   -5.99564834392249
C         6.41313693484515   -3.22074929862576   -4.73238638468933
H         1.57637082831022    0.23984294946264    1.07446729829558
H         0.16645216933533    0.92221356851753    0.01072337056525
H         0.76942447662776    1.71300927549049    1.44295119206136
H         1.19729037704505   -0.46676853470946   -1.09627770855027
H         2.40364247089680   -1.92831505996495   -3.09541843654560
H         5.59418470083027    0.85840288366849   -2.96210547743459
H         4.49746594611317    2.06579287391050   -0.98875406484611
H         5.56465397004412   -0.74471760881109   -4.52526942362394
H         4.02256994818602   -1.42361366397862   -5.08592005106540
H         5.58250444397387   -2.64502791451405   -2.83881982429249
H         3.41316850173813   -3.61794988206685   -4.62122995031031
H         3.65025987156263   -4.13175319358936   -2.95420462865776
H         4.04955600267814   -6.04065870817972   -4.24116338560094
H         5.57603913439589   -5.44532037330324   -3.58447274046392
H         4.68457082938634   -5.51336021850419   -6.45910793651993
H         6.07015725654338   -6.19455124054864   -5.74233556637043
H         5.57622285195038   -3.36356406381821   -6.67798290023284
H         7.06042907540006   -4.24471646176249   -6.53664427882090
H         7.10627797932525   -2.38308767005986   -4.85956275097940
H         7.02770518838267   -3.94520744827379   -4.17746996149738
