35
 energy: -44.219968215521 gnorm: 0.105936173331 xtb: 6.4.1 (025e99ea0bd20707e8cccc6e19fe66a0758c6dd1)
C         0.79482560208925    1.23077385638118    0.24343093462362
O         2.21257875359411    1.20418025119863    0.14371016600759
C         2.76086188932815    0.57135280410774   -0.93776212786477
C         2.03621066855730   -0.04683905739536   -1.95775673246224
C         2.65353266425781   -0.64139669508321   -3.06270373825339
C         4.04872010826095   -0.58676931716945   -3.18660561229268
C         4.78568876556166   -0.10730101373790   -2.09553943930988
C         4.14773939696320    0.59526981101611   -1.05954255324860
C         4.81242414576262   -1.20641969871870   -4.33875020180839
C         5.56126626040513   -2.54481505773138   -4.10113777961902
C         4.55177851053357   -3.58589605727548   -3.58953467830465
C         5.13788365093553   -4.98411894440575   -3.76069236341277
C         5.33868130380063   -5.35615098738341   -5.21693075216902
C         5.51261156980213   -4.15712039579823   -6.12682831072814
C         6.25942282217282   -3.07991847954234   -5.36121106035869
H         0.28794352281717    0.33139525744270   -0.12129508365207
H         0.31272090228473    1.98177793820262   -0.39025648699538
H         0.41214167608168    1.39191769104508    1.25663943518509
H         0.95363202658404   -0.12952708416326   -1.99844641826138
H         2.10161236124475   -1.06199982136980   -3.90142314290438
H         5.84497948804239    0.08965476770181   -2.22656697962694
H         4.67315090895178    1.23095240762033   -0.35304195140367
H         5.59138099423780   -0.53707910049031   -4.73170667286824
H         4.07463270414076   -1.33102795087534   -5.14298854555421
H         6.30747967097183   -2.41046477613211   -3.30000682299104
H         3.69249552842974   -3.50469555986301   -4.26417688061231
H         4.10642686481708   -3.47149738904199   -2.59022959940457
H         4.48129910342697   -5.70472797067023   -3.25651705044227
H         6.10982031266971   -5.07066335806718   -3.25759809773064
H         4.60430794910246   -6.04681051427339   -5.65096598785824
H         6.22476718938186   -5.99689015981341   -5.28975166609056
H         4.56472821321306   -3.85887862412543   -6.58774022425604
H         6.12990283216771   -4.19500771988705   -7.03375582320686
H         6.45208880553838   -2.27039015529934   -6.07243468805856
H         7.26681748333348   -3.45846658839954   -5.13246816478735
