35
 energy: -44.219251261376 gnorm: 0.115881266609 xtb: 6.4.1 (025e99ea0bd20707e8cccc6e19fe66a0758c6dd1)
C         0.87360169242322    0.87280879061348    0.29918729863686
O         2.28621303189570    1.00874881854403    0.21718186198673
C         2.87462835656204    0.68344041436450   -0.97387183904773
C         2.19399276135150    0.31068746673659   -2.13381135125681
C         2.88750340354556   -0.18839007014397   -3.24081516460457
C         4.25638586528168   -0.48392383759287   -3.17995366301723
C         4.95932416998562   -0.12503012659045   -2.02214935813694
C         4.25794881337828    0.52571440244721   -0.99332545856779
C         5.05588229835536   -1.02877924321231   -4.34553736798443
C         5.17025190196946   -2.57623794423948   -4.31694823897034
C         3.86837382049792   -3.39168215310680   -4.38635310732962
C         4.14598586283691   -4.87132142237049   -4.13848098133026
C         5.55941912170061   -5.32943777946945   -4.44129048173406
C         6.10638258281162   -4.57628643507002   -5.63687973935925
C         6.14021797784476   -3.07754967779351   -5.39833402543569
H         0.64857708303317   -0.18919064104275    0.15650762485616
H         0.37064556275758    1.43029233323396   -0.49720395751068
H         0.56896971180086    1.16371981255962    1.30991767944062
H         1.11047735497182    0.34125739664687   -2.20816974761769
H         2.40382562897494   -0.50634264407736   -4.16273439813578
H         6.01383190392310   -0.38101845502493   -1.99891349642978
H         4.71003883089586    0.71020863891598   -0.02334139542035
H         6.10149223082047   -0.69129901464394   -4.30067882564462
H         4.61397881472822   -0.78812871422500   -5.32199592026347
H         5.68737096114918   -2.83691694838122   -3.37815669715536
H         3.59553336456517   -3.26596729665415   -5.43985047944282
H         3.18575040544668   -2.93992901164574   -3.65151969854731
H         3.42298877780000   -5.50068865186870   -4.67303264482936
H         3.90773445662426   -5.03184440587132   -3.07889460832173
H         5.66216446150253   -6.40244406000264   -4.64817765592525
H         6.26333068812235   -5.36003377280542   -3.60190370820340
H         5.70772503109147   -4.88668326001394   -6.60878341887328
H         7.18417565912155   -4.76708995825852   -5.72029171980129
H         5.74532330052151   -2.55158969667140   -6.27338808907588
H         7.14925323290797   -2.71885532276710   -5.14604018280314
