35
 energy: -44.218635893165 gnorm: 0.086073154525 xtb: 6.4.1 (025e99ea0bd20707e8cccc6e19fe66a0758c6dd1)
C         2.58492051667268    1.28935786906910    1.05536300831493
O         1.70222805745195    0.86164007593325    0.02648648562382
C         2.37150030113350    0.44758691205715   -1.09212949756329
C         1.71762780409627    0.31266114989348   -2.31765593602212
C         2.31983138826838   -0.13660752798431   -3.49706313650729
C         3.64717629187880   -0.58652956196905   -3.47238127205761
C         4.27481903740628   -0.47471127583512   -2.22458361181892
C         3.73623242852897    0.17138622105909   -1.09925835297327
C         4.29267284028187   -1.20660987209987   -4.69446225421490
C         5.10829221395718   -2.51016663502761   -4.48462668492360
C         4.23047247066835   -3.57010158303414   -3.79860683454972
C         4.70339196085215   -5.00041949748670   -4.04022476165323
C         6.20381430914709   -5.02378673078044   -4.25827181627579
C         6.44163781677120   -4.34574746046650   -5.59226670981241
C         5.65963273437629   -3.06276512240891   -5.80833412975774
H         2.00185666332892    1.71958720121187    1.87620137422026
H         3.27719298454575    2.01203600545721    0.61209452762540
H         3.19607442008321    0.43837112962071    1.37366828093593
H         0.68531780444234    0.63659720935670   -2.41700798780271
H         1.71874136803633   -0.10335406318868   -4.40401302247169
H         5.29653839839025   -0.81513168010094   -2.08945407748302
H         4.52746441710121    0.45869891181455   -0.41318551615948
H         4.90960678268197   -0.44068592661185   -5.18635486313489
H         3.50776179970433   -1.41765207573279   -5.43340644427772
H         5.99404016623219   -2.15876781422548   -3.92905071814239
H         3.21260945392585   -3.42320693065638   -4.17607165546648
H         4.38434429608667   -3.44757097445034   -2.71631968328894
H         4.23404909952412   -5.50638520090125   -4.89362347300568
H         4.52415249792486   -5.63409553177560   -3.16182704932143
H         6.47822319949352   -6.08519432119363   -4.20521454384789
H         6.79490942361241   -4.57053559789702   -3.45442622161288
H         6.07143012335436   -5.14629467674193   -6.24183673210990
H         7.52288512327658   -4.25729342916188   -5.75984237404132
H         4.85389156376148   -3.23906151316836   -6.52805356677577
H         6.37441975121825   -2.28161261202885   -6.10724255424838
