35
 energy: -44.220788682929 gnorm: 0.093839533105 xtb: 6.4.1 (025e99ea0bd20707e8cccc6e19fe66a0758c6dd1)
C         0.84996006276686    0.85139738752377    0.35027959803133
O         2.21673944797511    1.12849291543102    0.07494785887070
C         2.80382100062840    0.45143796752691   -0.95829893768155
C         2.10434827625448   -0.07521385174189   -2.04505790048183
C         2.83399801164652   -0.55159910456755   -3.13874945693218
C         4.23543932216757   -0.55947709060218   -3.16674472141648
C         4.91643856165773    0.18413728864499   -2.19375168142382
C         4.17870861096807    0.63162734965698   -1.08497684818159
C         4.87909872001191   -1.19248960576806   -4.38315134668583
C         5.47129552656241   -2.60346805523907   -4.12436777004314
C         4.35241423354995   -3.54128362642214   -3.64139836640730
C         4.88665485656503   -4.96246765392218   -3.79194511565288
C         5.27866049100724   -5.33147376779941   -5.20952186487235
C         5.50335816586550   -4.11308663321744   -6.08180816842018
C         6.23833830532707   -2.97067118482519   -5.40434827951563
H         0.70819984817697   -0.19874241026937    0.07469511856672
H         0.12224560821377    1.51004905625418   -0.13407714449798
H         0.70880163584981    1.03642194050050    1.42025435687797
H         1.02305254602737   -0.16924405813061   -1.99579125872691
H         2.24540390735548   -0.96174057771519   -3.95747655821051
H         5.94865942501312    0.50909106635612   -2.27730780498992
H         4.67279160067558    1.23401181785382   -0.32846673785976
H         5.63690981083475   -0.47678633625903   -4.73343196314075
H         4.07683900596441   -1.27355599737681   -5.12912069564064
H         6.19858342178088   -2.52238078134194   -3.29903608163114
H         3.40605513275585   -3.37657160431072   -4.16806453515443
H         4.04561186333322   -3.23651322017795   -2.62995233594572
H         4.27567240163823   -5.73641002200664   -3.30998347137362
H         5.75220862253331   -5.12081326363872   -3.13544074451437
H         4.58822846655317   -6.05498154983249   -5.66178450460451
H         6.23788313053629   -5.84717712525851   -5.08729363635458
H         4.53348750987595   -3.71444417363897   -6.39851923016230
H         6.09969228159490   -4.47571847204854   -6.92908924953599
H         6.21611362401022   -2.05869496627031   -6.00941089068489
H         7.28623487966920   -3.13595917597704   -5.11270016981552
