35
 energy: -44.223739879616 gnorm: 0.108581097349 xtb: 6.4.1 (025e99ea0bd20707e8cccc6e19fe66a0758c6dd1)
C         1.04712778761333    0.81449935879811    0.52179388965369
O         2.24488415660712    1.34211524281300   -0.03289209056616
C         2.77075480101992    0.73281070001567   -1.13872892626657
C         2.08396491795221   -0.24793063494669   -1.85576123030929
C         2.69450220814927   -0.85077446522606   -2.95998781783896
C         4.03292645162547   -0.62578388105388   -3.31053494245926
C         4.68941416587832    0.30959656682880   -2.49965576265994
C         4.11651874942091    0.97414881333396   -1.40237020780021
C         4.83602070718064   -1.27179960374235   -4.42064782773540
C         5.38671458964452   -2.63121415676165   -3.91344520000001
C         4.23017901356441   -3.63737790628166   -3.79214881847282
C         4.82468140199636   -5.03286651741532   -3.95652599496412
C         5.31287227347736   -5.20634608622254   -5.38163380976185
C         5.80410680795160   -3.91027175508829   -5.99377726692623
C         6.46720250699695   -3.07976585478852   -4.90988391064413
H         1.15656804490794   -0.19383266146869    0.93425688360652
H         0.22041140269676    0.81302042692397   -0.19551331904975
H         0.92510720871642    1.57810106432586    1.29705461117067
H         1.05592561973420   -0.48764129367851   -1.59857779331301
H         2.11680638199676   -1.57400597052838   -3.53285500807926
H         5.75581159745480    0.42951671420988   -2.66235846763609
H         4.66659048079270    1.75461895997150   -0.88508883999508
H         5.63319699131129   -0.56793910663240   -4.70046151015272
H         4.06030572061005   -1.38216671893691   -5.19054914330483
H         5.78368200951202   -2.35852065599617   -2.92109931872576
H         3.46545782847346   -3.56100748447835   -4.57283564443852
H         3.82712918971452   -3.45438806192865   -2.78512283804135
H         3.98751558405897   -5.71321265008701   -3.75439754449154
H         5.65533479513715   -5.15254302019771   -3.24874981625882
H         4.42519491580377   -5.57754477538240   -5.90978324812342
H         5.99445625967501   -6.06356608451225   -5.34144787303820
H         4.95980215336399   -3.40157361935843   -6.47152893207717
H         6.50952409650741   -4.26997978356701   -6.75403909157191
H         7.09478408644919   -2.23353231233725   -5.20707993112581
H         7.08377119986468   -3.86740670622535   -4.45170173299668
