35
 energy: -44.221012471388 gnorm: 0.108241272769 xtb: 6.4.1 (025e99ea0bd20707e8cccc6e19fe66a0758c6dd1)
C         0.95949105519648    1.18419279359675    0.43780948054902
O         2.34330461542048    1.25838454841282    0.12121668124074
C         2.79358731853525    0.49240608435365   -0.91858598247155
C         2.05820604819166   -0.38532749162163   -1.71637506870222
C         2.70058051338215   -0.83079436874403   -2.87586080210015
C         4.02138948483932   -0.53704280278455   -3.24199904250814
C         4.69556634610251    0.38961415489731   -2.43563050978993
C         4.05311775680067    0.93669423505103   -1.31231503292160
C         4.63937392258937   -1.19791596736341   -4.45690201190083
C         5.34210465412257   -2.53303478131654   -4.09337286661566
C         4.29463817907535   -3.64491762962688   -3.91678479769437
C         4.86444465983187   -5.05819176192614   -3.99306194901259
C         5.32025684436325   -5.40274214314171   -5.39765372422028
C         5.98152392938128   -4.14881914294886   -5.93267017057437
C         6.46700376794340   -3.05142118212716   -5.00299937016164
H         0.69550608608187    0.31950253453699    1.05543319240992
H         0.35096559728755    1.10490599632927   -0.46850292335854
H         0.70112646764634    2.02203329663744    1.09376435884370
H         1.06266273472031   -0.72567606189066   -1.44521885414946
H         2.16463237435798   -1.58188578664701   -3.45343710693348
H         5.75655459750775    0.49650102535263   -2.63795605920065
H         4.55663688256601    1.64848927801086   -0.66492882752423
H         5.42655412710703   -0.53578541960981   -4.84566387824283
H         3.88545981284721   -1.35301651417591   -5.24062390496117
H         5.82686896797537   -2.46795110125009   -3.10470563490267
H         3.56638225150379   -3.47850267714339   -4.71806640781518
H         3.63046323413273   -3.57331815310989   -3.04283919202314
H         4.06144706079063   -5.75694613415753   -3.72564736713863
H         5.70051172226792   -5.07189129985562   -3.28168382717867
H         4.61176861197728   -5.84471373764987   -6.10997873370107
H         6.11444647078738   -6.15011707869352   -5.28952737746453
H         5.22976998683957   -3.70804488581804   -6.59633790307763
H         6.83657399537665   -4.41696983338240   -6.56669386786083
H         6.78867838017693   -2.21185096191757   -5.62745321816005
H         7.33408841919965   -3.29044874533945   -4.36936225157380
