35
 energy: -44.213202742447 gnorm: 0.097481347610 xtb: 6.4.1 (025e99ea0bd20707e8cccc6e19fe66a0758c6dd1)
C         1.88000931718235    0.56993874607184    0.94912582987312
O         2.36942090396702    1.33751805668185   -0.14264968122845
C         2.69451279337062    0.76434731919478   -1.34117289761357
C         3.82314092545682    1.01768901534584   -2.12199689094097
C         4.21925967705531    0.33672364114819   -3.27736229336427
C         3.48454617229377   -0.76884164910559   -3.72770134605228
C         2.38499335797338   -1.12413293854172   -2.93511713018989
C         1.99916688307084   -0.33452533147507   -1.83897276431295
C         3.73279866199727   -1.47501521201986   -5.04464370236065
C         4.79081394247463   -2.59247218988529   -4.84359684459206
C         5.28394111926860   -2.73642426390597   -3.39419825961760
C         6.51375094062702   -3.63728018490357   -3.33200639821803
C         6.70944740594487   -4.52028898364441   -4.54911614099961
C         5.40479407775196   -5.06504228990772   -5.09405942245041
C         4.33224842083705   -4.00206633199534   -5.24894227052744
H         0.79710739457972    0.40821263204923    0.94701139742313
H         2.09973720226301    1.02653160212333    1.91929820926988
H         2.32705747884182   -0.42960581810828    0.94110110458310
H         4.55688925993014    1.72032903335315   -1.73679582156430
H         5.21809661328332    0.50276747962409   -3.67702147541066
H         1.77335183140038   -2.00233944572907   -3.11596126879009
H         1.17860294046328   -0.83200935512276   -1.33056624523250
H         4.03665103150171   -0.70347020845546   -5.76686072267385
H         2.75503103061646   -1.81773706107139   -5.40957509097848
H         5.68839404828702   -2.37087160728334   -5.44520999279748
H         4.50677558357645   -3.17212765184459   -2.75679795689247
H         5.56470618137731   -1.80717206702340   -2.87680372180160
H         6.42080976309324   -4.29343832384203   -2.45713965885087
H         7.41959675665801   -3.01708853910210   -3.32423951608295
H         7.37436614494797   -5.35033042473628   -4.27779407570785
H         7.17729952701751   -3.91894697646540   -5.33683433167364
H         5.04267794373745   -5.82710237372120   -4.39548435039143
H         5.65024519674393   -5.52252212806152   -6.06125506186686
H         3.41651593023586   -4.22791538822441   -4.69331511434622
H         4.00882420378442   -3.91769017994979   -6.29715189490300
