35
 energy: -44.222632636470 gnorm: 0.092204958869 xtb: 6.4.1 (025e99ea0bd20707e8cccc6e19fe66a0758c6dd1)
C         0.95124790209477    1.56246574410451    0.43899070317258
O         2.31422061436822    1.62064585466821    0.03949623346059
C         2.82989898292604    0.73899620816050   -0.87013928908836
C         2.16324043722155   -0.35146285395404   -1.43061646069565
C         2.65252903399891   -1.06765257594238   -2.52750378264057
C         3.94275705260889   -0.83000115377581   -3.02118080136289
C         4.69291323684590    0.10907336221731   -2.30087355940869
C         4.12044696483739    0.96243267936456   -1.34278447524129
C         4.51379321976566   -1.50993073554920   -4.24847897103020
C         5.41872036369651   -2.74909065347842   -4.01585104860416
C         4.53816503436732   -3.96877940619365   -3.69704937058633
C         5.02075364644088   -5.29692831117715   -4.27234940895899
C         5.17508704053294   -5.11200370309685   -5.76946058455249
C         5.76184448050074   -3.79756242961620   -6.24253510813456
C         6.44485193759443   -3.03083127963911   -5.12455258151732
H         0.77519326727460    2.44397419601758    1.06411786610878
H         0.73911343348865    0.61589240354872    0.94593219593648
H         0.30332966140718    1.60535632624618   -0.44269411472295
H         1.11205737828595   -0.45585684330922   -1.17647987499496
H         1.99623732657758   -1.87780015638857   -2.84041783030348
H         5.64739823942937    0.36207178185520   -2.75143618755599
H         4.72288219279957    1.76014890426793   -0.91850484729458
H         5.08051111720252   -0.81240274578791   -4.88211203150603
H         3.67865531520085   -1.90074342624843   -4.84553240166834
H         6.00286420954424   -2.56264490782122   -3.09894910101848
H         3.58794857205170   -3.83329168043217   -4.22509729303706
H         4.44774630859632   -4.06288851854015   -2.60480228237904
H         4.33721798884257   -6.09996581945884   -3.96823899139394
H         5.96910831260069   -5.54459837897901   -3.77784196484477
H         4.29933259003746   -5.24375202314848   -6.41784157875365
H         5.85111331368132   -5.91707627400087   -6.07904805569489
H         4.99012421145053   -3.22872489385217   -6.77238648827464
H         6.57763968454559   -4.05344465250637   -6.93101454536543
H         6.80460892985421   -2.06230373773793   -5.48624946296616
H         7.38935900164123   -3.49321497495160   -4.80117401226349
