35
 energy: -44.230035390291 gnorm: 0.078227509598 xtb: 6.4.1 (025e99ea0bd20707e8cccc6e19fe66a0758c6dd1)
C         2.80622018598089    0.10953671136794    1.05542489103337
O         2.04123605948199    0.24115737709871   -0.13543641758779
C         2.61734608819799    0.22918437265847   -1.37584801875685
C         1.83459178349302   -0.36885963182094   -2.36443706688137
C         2.42741273594496   -0.58779448696401   -3.61188393478931
C         3.76279348845905   -0.25608839405854   -3.87948968159818
C         4.48076099727052    0.45698894170374   -2.91022134495577
C         3.90691070907729    0.67890052972753   -1.64715938162447
C         4.39724129375862   -0.93936662561477   -5.07332977445883
C         5.06933784898624   -2.22096835558037   -4.51269673059342
C         4.01168014131896   -3.14359052184145   -3.88438044761152
C         4.54969253260937   -4.36075334099847   -3.13812396073483
C         5.90236076482935   -4.72090135944162   -3.72116755106372
C         5.84408591278575   -4.52519513143060   -5.22254783735259
C         5.76985396873446   -3.05578635117983   -5.59616290258699
H         3.17879405948703   -0.90980803445796    1.20020524233475
H         2.12967398632103    0.38651882395796    1.87001555527603
H         3.65297039153143    0.80369620087416    1.06817080097124
H         0.78825045601695   -0.62512985126161   -2.22314048598868
H         1.79408549517261   -1.04993905772833   -4.36706080380665
H         5.54813453515438    0.62687914141025   -3.00975795640994
H         4.49146167641219    1.24702586224923   -0.92964538345772
H         5.21246826614130   -0.33970492703966   -5.50346481635565
H         3.62706288768690   -1.21679884973587   -5.80580452156662
H         5.78514019300287   -1.96546433791012   -3.71329700304467
H         3.38788220222413   -3.50296287346607   -4.71011072871326
H         3.33416059037368   -2.53230227108296   -3.27010876525229
H         3.84409521949650   -5.19975165647875   -3.19092201467796
H         4.65951325196302   -4.23893602428215   -2.05260353554948
H         6.29311313638576   -5.67236898215491   -3.33812273222633
H         6.63810072746640   -4.02019522371602   -3.31044211522920
H         4.96401392996570   -5.02546936954645   -5.64096125520181
H         6.73242918826987   -4.97620707857776   -5.68345553575273
H         5.14621674229184   -2.95954569136469   -6.49065139736867
H         6.73692491059579   -2.58718947618544   -5.83207969388942
