35
 energy: -44.228343359541 gnorm: 0.093972624782 xtb: 6.4.1 (025e99ea0bd20707e8cccc6e19fe66a0758c6dd1)
C         1.19374338037200    1.62770698297103    0.43521104075504
O         2.28107602286976    0.71210124542566    0.44222762349407
C         2.78127485546566    0.25616951055840   -0.74629854374300
C         2.04910813105412    0.24711920367721   -1.93437228691801
C         2.64864446294401   -0.16913057513572   -3.12717786439875
C         3.97591909787385   -0.60469247530138   -3.24341635303925
C         4.67770123221668   -0.50298171551723   -2.03486577523927
C         4.15122679778591    0.02752577490607   -0.84521838365939
C         4.60605975746013   -1.12250446023687   -4.51991186933790
C         5.10640068797138   -2.58633982474558   -4.39593146407330
C         4.02177632439971   -3.67639234019432   -4.39060891706512
C         4.61600325451160   -5.03636897060906   -4.03677375412330
C         5.94465676417175   -5.23415829000961   -4.74027713277439
C         6.15595062337429   -4.32716930654131   -5.93550327736157
C         6.12990170966775   -2.87138907909375   -5.50621766012109
H         1.18905979086242    2.02727833750761    1.45460162052327
H         0.17376543380136    1.24354415863087    0.33493287517401
H         1.35324132306754    2.43771602627068   -0.28412999276542
H         1.03907696101677    0.61137746493533   -2.10057180201891
H         2.01916695385297   -0.20373193296030   -4.01460893934210
H         5.75823123997693   -0.57121712945956   -1.95834567766163
H         4.79875617043895    0.07008102749290    0.02552115194451
H         5.50202332477914   -0.49547683441821   -4.63519833095838
H         3.95938740103273   -1.07749012635517   -5.40673272643210
H         5.55585066733576   -2.69091065658017   -3.39405578506419
H         3.55368448342234   -3.69254026364637   -5.38092811925580
H         3.25583008510426   -3.41535941332397   -3.64547541611639
H         3.84635795550675   -5.79947676672198   -4.20964937552461
H         4.75358166599063   -4.96828859021795   -2.94971723080211
H         5.95066785948758   -6.30431837135952   -4.98404475340450
H         6.79887604401608   -5.14610959689997   -4.05942868161669
H         5.27275118574766   -4.50715503455220   -6.55794579425720
H         7.09570659059608   -4.49280612384750   -6.47811236647093
H         5.92835226935925   -2.26833252092704   -6.39728215251288
H         7.14474443845211   -2.59100393175548   -5.18693037117331
