35
 energy: -44.224667758752 gnorm: 0.087767516522 xtb: 6.4.1 (025e99ea0bd20707e8cccc6e19fe66a0758c6dd1)
C         2.89108794925754    1.32641562603217    0.95560306340281
O         3.16887132789117    1.78359526850499   -0.36140056186008
C         3.17393574492856    0.85445157504738   -1.36506057744902
C         2.46186627938554   -0.34429716885019   -1.30482962853212
C         2.42152105001597   -1.21703993618190   -2.39670195116752
C         3.24791310443669   -0.97673978095596   -3.50314468429298
C         3.94967789164832    0.23604685098389   -3.51375185475165
C         3.84023424531689    1.23131124230281   -2.52818332502646
C         3.46346508064072   -1.97807775085196   -4.61916749644582
C         3.77672738809969   -3.45226925808558   -4.24882672918657
C         4.18882329809656   -4.22582607001713   -5.51232965715448
C         5.42559707606854   -5.07016726784198   -5.22023383800472
C         6.58150031034204   -4.12495532739517   -4.95599934022215
C         6.22637987097941   -3.19384596830362   -3.81461225259331
C         4.88514387685121   -3.52789920808238   -3.18711308957065
H         3.59136404312380    0.53264653224682    1.23556801509576
H         1.89997874781558    0.88073295985265    1.08622202305249
H         2.93147748999651    2.19174090291517    1.62536915668469
H         1.72808487219734   -0.66851340089144   -0.57208273593357
H         1.75476263871957   -2.07512757883634   -2.46067006501449
H         4.62588643305692    0.46744726820414   -4.33060701400901
H         4.35130942745405    2.18170013871470   -2.65006720324328
H         4.29446449674167   -1.54600674139024   -5.19532714167247
H         2.63780775503599   -2.05217803454168   -5.33990447242918
H         2.83507236655017   -3.85468343699027   -3.83889519002582
H         4.37670555381114   -3.64475207729049   -6.42181089465793
H         3.28992475115799   -4.73991545278966   -5.88344860621213
H         5.69503507610137   -5.65806394569598   -6.10699989287282
H         5.18291359555006   -5.73978549723323   -4.38478737196038
H         6.73541744101469   -3.60671181242812   -5.91121374682372
H         7.50577058929468   -4.64827120926879   -4.68606841681788
H         6.04127303110351   -2.15467361352462   -4.10740410843039
H         6.98098844332777   -3.22329298559426   -3.01793149261050
H         4.67254389312354   -2.79231573813634   -2.40480015642524
H         4.84485549904577   -4.49783669315804   -2.66936403011741
