35
 energy: -44.227491041996 gnorm: 0.094062526860 xtb: 6.4.1 (025e99ea0bd20707e8cccc6e19fe66a0758c6dd1)
C         1.98613354842799    1.80435835721083    0.75611902385658
O         3.00719039026294    1.84752357086432   -0.23193718311279
C         3.03492028297752    0.90552756738957   -1.22316957484410
C         2.03737731998510   -0.04168758703802   -1.45845816792666
C         2.28282400596697   -1.01243892255718   -2.43461932378039
C         3.45308433792683   -1.02599250138300   -3.20610527340559
C         4.38992244644531   -0.01367675984928   -2.95914588328311
C         4.18415662107782    0.99601598012706   -2.00412994935040
C         3.65179536544353   -2.05542542565420   -4.29946207352842
C         4.21478367057359   -3.41914153024151   -3.81795535408650
C         4.00126366388814   -4.35273310254484   -5.02106333831521
C         5.19551383529139   -5.29254697731379   -5.15655435747039
C         6.38477611365586   -4.50748637245427   -5.67491026816121
C         6.48134873160728   -3.26935589920818   -4.80683981564405
C         5.71734351327626   -3.37196312377630   -3.49915921841546
H         2.37176753209264    2.41447724382681    1.57945233009832
H         1.83752908426800    0.74560941959974    0.99055281569740
H         1.10078811895086    2.31327025049362    0.36092549662414
H         1.12150597454625   -0.16830044918405   -0.88782853275543
H         1.49397179757926   -1.71796926382353   -2.68939811297228
H         5.28750938005519   -0.07208745916489   -3.56658507990148
H         4.89897454733473    1.80464244916526   -1.88391705208458
H         4.24727020895430   -1.63104695687887   -5.12075248728217
H         2.68812166348985   -2.20688568414578   -4.80449222413678
H         3.65313714724510   -3.70880175792920   -2.91388381085876
H         3.95035208111608   -3.59124970201602   -5.80697293623916
H         3.03012812236436   -4.86327113096316   -4.94180144031557
H         4.86598903199714   -6.09847822940558   -5.82473217641603
H         5.35968520464142   -5.83462879221789   -4.21610249241881
H         6.33946370798271   -4.37606761338601   -6.76366059850581
H         7.28048653601602   -5.10877136449859   -5.48214885464896
H         6.09132819678052   -2.40633936611420   -5.35725533330455
H         7.55202041401409   -3.06270481866134   -4.68051112913673
H         5.94833302923495   -2.51536325882835   -2.85792927935003
H         6.05857120554670   -4.23811630314177   -2.91280753259482
