35
 energy: -44.224186160321 gnorm: 0.097673754243 xtb: 6.4.1 (025e99ea0bd20707e8cccc6e19fe66a0758c6dd1)
C         1.11125312571450    1.14831706278019    0.55461213774457
O         2.17183536232841    1.70903699219861   -0.20790596885853
C         2.72759106463254    0.91172665633205   -1.17024630259901
C         2.19918148572879   -0.33292835163866   -1.51562506688558
C         2.92160060271275   -1.05506650288370   -2.47067478293386
C         4.12681448706139   -0.62174887061759   -3.04039300055138
C         4.69382939239590    0.56329824642556   -2.55295563603649
C         3.94920746742688    1.35923825548477   -1.66645005584309
C         4.73690242355440   -1.40593401837968   -4.18384990195021
C         5.21721757533434   -2.84287890159171   -3.84767595999371
C         4.13640497396760   -3.92011445862299   -4.03757199825857
C         4.78580536404257   -5.28118270222373   -4.26911848303211
C         5.29197992135360   -5.30216440008027   -5.69835074372237
C         5.99088725428959   -3.99284181726462   -6.00337953291759
C         6.39789670935838   -3.25460795694152   -4.74099495315761
H         0.73180013922657    1.80986815977844    1.34023414152101
H         1.41561110170543    0.22191236054394    1.05173621937042
H         0.26562051722188    0.99786498287076   -0.12456047160091
H         1.26205220479223   -0.68424253315478   -1.09273455655693
H         2.59321540993181   -2.07101508488373   -2.68277087829470
H         5.58705670025189    0.90163134612482   -3.06844781384691
H         4.31987592008645    2.33727338511464   -1.37431178927074
H         5.60483191932543   -0.78548874914980   -4.45021691993448
H         4.05472700186195   -1.31588701599247   -5.04011557194998
H         5.55381895428059   -2.85306648169482   -2.79729938822053
H         3.54841611939169   -3.62962316321726   -4.91506089582628
H         3.45504961628278   -3.99639682935898   -3.17735595511587
H         3.88373797159795   -5.89215622817051   -4.13660755121827
H         5.54115979501619   -5.48137289457449   -3.49800356744696
H         4.48014641746358   -5.50404118931779   -6.40889526003259
H         6.06536626677836   -6.07656525915991   -5.75469464087441
H         5.45010585551602   -3.27504901112415   -6.62963807477756
H         6.87240193515489   -4.16656258315460   -6.63405727910661
H         6.99271116853910   -2.35306899815707   -4.91909207512101
H         7.02312641904849   -3.84283689056963   -4.05285216230167
