35
 energy: -44.226392882059 gnorm: 0.092463958346 xtb: 6.4.1 (025e99ea0bd20707e8cccc6e19fe66a0758c6dd1)
C         0.70264878238081    1.21318924855605    0.09755320547107
O         2.12331884322917    1.16896463119098    0.07715370913933
C         2.71986394216165    0.60032595393777   -1.01438239443945
C         2.11259760759579   -0.05031971955967   -2.08935078345004
C         2.88135216234180   -0.64297269731243   -3.09596476491922
C         4.28111969009535   -0.70147022000435   -3.05000366588488
C         4.85108757041964   -0.19894439832828   -1.87270075446494
C         4.08426143371146    0.37854671322873   -0.84685665176818
C         5.04885580918188   -1.23108536591029   -4.24362687147054
C         5.70275974643245   -2.59749148708941   -3.90618039031803
C         4.55341259069703   -3.55791058130209   -3.55797194991951
C         4.85211994765810   -4.97608743432100   -4.03482594756061
C         5.07271729426958   -5.14700807635600   -5.52528920245423
C         5.46283797813213   -3.84074207066746   -6.18658688457064
C         6.35779033642751   -3.12097577656846   -5.19398549541001
H         0.21157103174404    0.27794615321662   -0.19054287166977
H         0.40458937862657    2.10081936177499   -0.46924938468866
H         0.42146972240052    1.43072476764427    1.13322805990972
H         1.04007440476612    0.07401678545298   -2.21060973589655
H         2.49145351689279   -1.09844977679242   -4.00453109395790
H         5.91488808823926   -0.35883902050372   -1.72841405103175
H         4.52057939188243    0.77095294987421    0.06689197993629
H         5.79709319459931   -0.49563574078946   -4.57295950639779
H         4.30414119402503   -1.33768324940364   -5.04406406695353
H         6.43350582267345   -2.53304052523331   -3.08243803685252
H         3.66430583886224   -3.16536724487038   -4.06344377460286
H         4.29794088984079   -3.61456697904702   -2.48953382403380
H         3.90031628613559   -5.50351973906506   -3.89179332580363
H         5.66259895974656   -5.47596778526885   -3.48847619831339
H         4.21579081748380   -5.58215399961037   -6.05540845822042
H         5.86863885956628   -5.88382755946715   -5.68214479133926
H         4.49577216244382   -3.36252729398910   -6.37623163345987
H         5.96471312201512   -4.04105990785432   -7.14209489679213
H         6.94760314409615   -2.32333494115012   -5.65678704029895
H         7.14622019058223   -3.83933855334567   -4.92417212230999
