35
 energy: -44.217729867299 gnorm: 0.105788588345 xtb: 6.4.1 (025e99ea0bd20707e8cccc6e19fe66a0758c6dd1)
C         0.69463016884859    0.88246072606236    0.23268607907475
O         2.09844317821419    0.68404619988913    0.12965168764957
C         2.70745957030997    0.37391273739819   -1.05507753941467
C         2.08192399274436    0.27315614558636   -2.29854953098194
C         2.78040619339862   -0.15582399055488   -3.43150650233241
C         4.11249107004572   -0.56415778106190   -3.27756845826318
C         4.79395336921154   -0.33726533565900   -2.07441979126205
C         4.09611182737046    0.27731326377046   -1.02124137202271
C         4.94459408816140   -1.05754094091770   -4.44325492963450
C         5.71003099933430   -2.38897720707434   -4.21984953610269
C         4.89978844026979   -3.36503395504926   -3.35067000893096
C         5.40257087933555   -4.79108927694734   -3.55418276483617
C         5.02889357624330   -5.30267309992435   -4.93186379947383
C         5.18460520794280   -4.17799665952911   -5.93520643261220
C         6.15636947534508   -3.09145771059925   -5.51168774671441
H         0.06606273180718   -0.01097666229482    0.15846368656246
H         0.42694491111106    1.60616722535671   -0.54357760486581
H         0.61505629583686    1.36143118863586    1.21414472086724
H         1.03724022472284    0.54594551681561   -2.41975641611114
H         2.32185919767611   -0.11713321393779   -4.41802096111321
H         5.82574548680176   -0.66887746975819   -2.01530199751349
H         4.39016144085818    0.37763077646023    0.01931800384042
H         5.65948974366686   -0.30179801532367   -4.79960047836262
H         4.24550502471781   -1.30942306977360   -5.25226206610829
H         6.69208360243248   -2.19537310895480   -3.75640012514669
H         3.83213606498059   -3.20704407309652   -3.53844767698123
H         5.03284771366626   -3.10760621235280   -2.28950934602891
H         4.91319465126728   -5.34239505733796   -2.74107378077473
H         6.49597866130724   -4.87281285113827   -3.49908900689045
H         4.01692503943894   -5.71204320968951   -5.04604426774023
H         5.62011500310439   -6.17188649658712   -5.24157827935375
H         4.15764995858707   -3.82914056656474   -6.08861157210990
H         5.31241733539515   -4.51293125184409   -6.97274406328732
H         6.25532601307589   -2.34499128246354   -6.30622584797631
H         7.15505444781821   -3.55251317335086   -5.48883710146676
