35
 energy: -44.212839998187 gnorm: 0.117212093032 xtb: 6.4.1 (025e99ea0bd20707e8cccc6e19fe66a0758c6dd1)
C         0.62333825946077    0.93384297097508    0.01672584715702
O         2.03813080242681    0.80861846727814    0.07465901675577
C         2.76981110166907    0.37080827057579   -0.99474886811061
C         2.11476514138653    0.26058219169193   -2.22211769385250
C         2.80991363228391   -0.13154674200221   -3.37037564009321
C         4.14952868190733   -0.53638425395068   -3.29024068686465
C         4.82515194862641   -0.37945122141330   -2.07272560985106
C         4.14140136272639    0.13372600246764   -0.95782260785335
C         4.95430009433490   -1.11815796053224   -4.43415048858746
C         5.71681938782050   -2.43646124114767   -4.13554213110365
C         4.93250121813307   -3.46126536664677   -3.29931587952615
C         5.56469872738467   -4.82144758196550   -3.57872965328608
C         5.17065015791894   -5.25830620783235   -4.97631257974421
C         4.88908002377588   -4.08435336966491   -5.89195041447857
C         5.96908240965420   -3.09119048121659   -5.50274213605536
H         0.20479110983159   -0.04827629013276   -0.22637165232926
H         0.39272080110198    1.65133881559750   -0.77700401966967
H         0.39469864041591    1.36089124461196    0.99874390520764
H         1.07568813637510    0.47869117439770   -2.45280530382329
H         2.20811161871507   -0.12697835130804   -4.27745146983448
H         5.88536537545469   -0.50167848819521   -1.87507827349697
H         4.67488749158540    0.30108170973645   -0.02686761976822
H         5.62958697051755   -0.32693436726683   -4.79074294476933
H         4.25869459148024   -1.36971446457369   -5.24625576356856
H         6.62767469653696   -2.17695255873999   -3.57012806308949
H         3.86973479154719   -3.55047946531811   -3.54965807796890
H         5.07833346487013   -3.19507619343481   -2.24200228066337
H         5.30778564458298   -5.59052348825811   -2.83907345319202
H         6.65821758057605   -4.73727489948332   -3.52988172086377
H         4.15991483467798   -5.63696184542150   -4.77697517261852
H         5.91651242273576   -5.91830121838897   -5.43358037089831
H         3.85290678248486   -3.73000694142007   -5.86636881541513
H         4.94811868509315   -4.43614071565732   -6.93010336912852
H         6.06766152681102   -2.26147224217144   -6.20995152755835
H         6.98988916825687   -3.46545538985166   -5.67110278524551
