35
 energy: -44.218071075676 gnorm: 0.095655293171 xtb: 6.4.1 (025e99ea0bd20707e8cccc6e19fe66a0758c6dd1)
C         1.35798532705949    0.94076196101317    0.82594175547054
O         2.42548759288406    1.48619120584275    0.06199068857269
C         2.81685690631333    0.82545126673684   -1.06978661754631
C         2.11797379315676   -0.28053646326760   -1.55560837474644
C         2.55070658071117   -0.84578713663342   -2.75923907023372
C         3.83681880883394   -0.59366744046792   -3.25646588772178
C         4.53900623673318    0.48301767374803   -2.69868481623665
C         4.00666829572405    1.25449398335803   -1.65211180703160
C         4.43403179061399   -1.42563042496925   -4.37262965640496
C         5.00374409844863   -2.80616924801713   -3.95065026896606
C         3.98677800069537   -3.86813146484487   -4.40083804956939
C         4.68140713026826   -5.22586195980484   -4.35725272543113
C         5.72686873223967   -5.26502646854313   -5.45490200866683
C         6.34232347762520   -3.91937049735788   -5.78088530931192
C         6.40664924285306   -3.09890098895974   -4.50536473329090
H         1.68597162208758   -0.00620962126210    1.26697029141879
H         0.46201670992814    0.82240161367928    0.20850927559168
H         1.23740388353835    1.66644801328608    1.63701859558775
H         1.08050219368466   -0.40845171804173   -1.25936574474121
H         1.94765502695728   -1.56247803071529   -3.31390661311896
H         5.52165960751437    0.63455247728241   -3.13398476598268
H         4.51296687250216    2.13395728700148   -1.26546128691044
H         5.15611094041107   -0.81800309333913   -4.93707278278499
H         3.63143528215015   -1.44601695058873   -5.12235354233483
H         5.19485203779560   -2.86053487973025   -2.86565379400987
H         3.73420627197547   -3.51942617360683   -5.40816867750924
H         3.08301813555649   -3.69521221581568   -3.79805052007510
H         4.02330151473654   -6.09934596142152   -4.44942687148925
H         5.01026077549849   -5.19909798291966   -3.31016456634821
H         5.28620133281862   -5.76523008298540   -6.32685956107294
H         6.53833079112587   -5.91287724576479   -5.10445021167752
H         5.79011100697421   -3.33299762066412   -6.52324575557292
H         7.30814338799713   -4.01656011059330   -6.29347436152961
H         7.06237793174135   -2.23699605908043   -4.66484857269712
H         6.85728016321687   -3.75052688591002   -3.74196350651218
