35
 energy: -44.229550948506 gnorm: 0.087822774268 xtb: 6.4.1 (025e99ea0bd20707e8cccc6e19fe66a0758c6dd1)
C         0.77928184861645    1.23220067234505    0.22870545342117
O         2.15511722552429    0.87657461851812    0.19289337981443
C         2.72382401996566    0.38722504804607   -0.95068725191913
C         2.01415560536836   -0.06473933462002   -2.06413603711507
C         2.71674556857724   -0.61427525857386   -3.14110886279076
C         4.11636386252650   -0.59948927084858   -3.21682898129315
C         4.81005265803490   -0.02985893282892   -2.14083878508679
C         4.10030633289580    0.55412568214464   -1.07824922096344
C         4.89002376606860   -1.22483098495770   -4.35921483101609
C         5.67649388846930   -2.52923596940130   -4.06169415224595
C         4.68742072743933   -3.54540696311278   -3.46689701970605
C         5.15887812352651   -4.97072812663161   -3.73897956232048
C         5.07751949983203   -5.25574630476655   -5.22609192594091
C         5.37693478018696   -4.04186130471874   -6.08205532837298
C         6.27853020937688   -3.04348739780682   -5.37875170588197
H         0.13833178646249    0.38362019246553   -0.03192942962755
H         0.67898787096218    2.04884634508042   -0.49311361439190
H         0.55600830191238    1.65445572444074    1.21402538279798
H         0.94582888942169   -0.26256533377806   -2.06063820884596
H         2.12439850887259   -1.08432843054939   -3.92414659153569
H         5.88204144251372    0.03413697398345   -2.29832233068067
H         4.56523444352296    1.11120848734920   -0.27029303998071
H         5.58188936854890   -0.38464792566823   -4.51612165298955
H         4.28128285529678   -1.30704045220506   -5.26989522346841
H         6.50665466301664   -2.40338036174084   -3.34636997867329
H         3.78239678633794   -3.43458652032793   -4.07414766647787
H         4.43530636168158   -3.25349230047242   -2.43672230528904
H         4.64045765063972   -5.79079865871634   -3.22585393327937
H         6.21954214920640   -5.05646429064249   -3.46898738155805
H         4.13939581405658   -5.71770633825719   -5.55958594984993
H         5.87051712593342   -5.97278645386602   -5.46693617970469
H         4.43960238610882   -3.56987680097785   -6.39591741140380
H         5.89527760827103   -4.33165478397367   -7.00527897947473
H         6.51454920042023   -2.26329046901051   -6.10942475733378
H         7.20979918333849   -3.57183717621659   -5.12566954502813
