35
 energy: -44.219905764674 gnorm: 0.095182848490 xtb: 6.4.1 (025e99ea0bd20707e8cccc6e19fe66a0758c6dd1)
C         0.92991413363913    1.26249759611874    0.37011272047345
O         1.98712470076254    0.32770173522902    0.19941447792466
C         2.56967822850624    0.26068105442142   -1.03622571283874
C         2.01360792179691    0.45874811873171   -2.30083018721244
C         2.79512445649338    0.03351327008162   -3.37967218381216
C         4.06697432631310   -0.55379944317172   -3.33124516433251
C         4.65289027796563   -0.52597846827733   -2.05870195262658
C         3.88921945568222   -0.17193612405394   -0.93383070191303
C         4.81632618352025   -1.06769836840416   -4.54327939668644
C         5.63152040307666   -2.37267729121184   -4.34075890556109
C         4.88225842426796   -3.37779911347372   -3.45025936404964
C         5.57928286435856   -4.73369757302100   -3.50973793175756
C         5.43005004128100   -5.33850394495371   -4.89223443621306
C         5.18545517489501   -4.31238265926050   -5.97993297269156
C         5.92314051009467   -3.01420970008372   -5.70638577122409
H         0.82649614417423    1.53638578172040    1.42516074579003
H        -0.10393479784811    1.05033285171834    0.08005358098219
H         1.24031482811645    2.22369512200728   -0.05268332238399
H         1.10630067047984    1.00656662569523   -2.53990704566003
H         2.31625609482050    0.22981712883416   -4.33733756624480
H         5.62510453464304   -0.99834759931734   -1.96009501323810
H         4.33497852441101   -0.42423301231314    0.02373794368792
H         5.52729341149492   -0.29496294277254   -4.86979260811338
H         4.07132353041486   -1.27204371422516   -5.32422541971050
H         6.62400072882956   -2.16406373469920   -3.90698661342875
H         3.83292194984847   -3.53087838815311   -3.72514578841846
H         4.97512484416864   -3.05021922957160   -2.40426557230805
H         5.00581012519238   -5.27692461702106   -2.74776235976974
H         6.61883806645504   -4.63510687731592   -3.17082865434297
H         4.58799855327523   -6.03914395469638   -4.82328333501317
H         6.36916658509500   -5.88612458957895   -5.03068843891937
H         4.10961242500467   -4.10849511351283   -6.00931053799894
H         5.48771300644988   -4.67206819610761   -6.97203577708645
H         5.66026260486341   -2.28107398726297   -6.47560781514532
H         6.98724142089375   -3.26927369117573   -5.82083042787114
