35
 energy: -44.215429556014 gnorm: 0.110798597270 xtb: 6.4.1 (025e99ea0bd20707e8cccc6e19fe66a0758c6dd1)
C         0.68116188419983    1.30146597414069   -0.00389063324205
O         2.07628717743052    1.04670051788308    0.09303900092067
C         2.81240002015243    0.48040866463267   -0.91101204216734
C         2.14429491317441    0.03605620736290   -2.05287705607688
C         2.87867008082153   -0.63250849503576   -3.03736027465957
C         4.27476829304574   -0.72775651973499   -2.95537777702602
C         4.92878004911702   -0.17551543421299   -1.84599228444414
C         4.19544757109626    0.38049239230779   -0.78441175375096
C         5.11117639191380   -1.12513872614433   -4.15419228074105
C         5.55953787564843   -2.60976684115572   -4.09607583966604
C         4.30396117330100   -3.47421171820765   -3.89380117391259
C         4.75889242886982   -4.93053425349882   -3.89570776807227
C         5.44445394507177   -5.37673381023422   -5.17252769817722
C         5.48040504533677   -4.20262394986814   -6.12961348598579
C         6.18518085076531   -3.05657959090624   -5.42666672289787
H         0.16816988196548    0.34961108222121   -0.17607607304436
H         0.46259136101701    1.96567344225402   -0.84594001796886
H         0.43139821356830    1.86117048921357    0.90349833195402
H         1.07795837147511    0.06251544724579   -2.25950623035141
H         2.35425282844177   -1.15036956665169   -3.83847172990331
H         6.01241018008892   -0.15394378603957   -1.90375817024842
H         4.60142046012648    0.80121030881970    0.13072486395234
H         5.97456300123623   -0.44691059389358   -4.21563732036538
H         4.58525373493508   -0.80156692729149   -5.06269067001217
H         6.19994768609456   -2.60259005348654   -3.19801181513552
H         3.53005211888884   -3.30979783918810   -4.65151860402464
H         3.80235921830432   -3.27777609525235   -2.93471604070138
H         3.84013954299783   -5.52915588851891   -3.84967897100456
H         5.32648047126381   -5.02987480649350   -2.96124005185195
H         4.82827281393662   -6.08160397753540   -5.74539788236620
H         6.50549074121242   -5.58693267391555   -4.99641659660398
H         4.45731322841748   -3.85610866166523   -6.31149555082941
H         5.93963217410884   -4.49374790480640   -7.08321651899930
H         6.30872076089393   -2.18294924440452   -6.07458896316658
H         7.25763880889552   -3.28802206395969   -5.34460406987868
