35
 energy: -44.225039998267 gnorm: 0.102433096014 xtb: 6.4.1 (025e99ea0bd20707e8cccc6e19fe66a0758c6dd1)
C         0.88011442226451    1.13053662254623    0.40826012766911
O         2.22079599555770    1.41447137132681    0.03059711769987
C         2.79609031809164    0.73288356373377   -1.00629321433997
C         2.14770505278431   -0.19593507432128   -1.82149976588329
C         2.83898773018732   -0.90958808580160   -2.80553253046906
C         4.18188072833123   -0.65528446066648   -3.11674242483732
C         4.80976086660405    0.35365576176632   -2.37428441064096
C         4.13577997453885    0.96705503016715   -1.30500169411393
C         4.60802810847250   -1.36071539724149   -4.38773138504706
C         5.27909218093635   -2.68410676216178   -3.93294077838620
C         4.24288936392200   -3.81429160092082   -3.81624118720313
C         4.89789162542574   -5.16992026486892   -4.06339371400898
C         5.33916866527201   -5.26939570299758   -5.51071433578344
C         5.85313148500491   -3.94128751317760   -6.02821844864458
C         6.39971536030458   -3.07180445746219   -4.91040538435761
H         0.64362066887059    0.06660660720903    0.51295004383966
H         0.24756111269922    1.57930922571882   -0.36405539287964
H         0.75685198619425    1.72081149589376    1.32225559556812
H         1.08674903809804   -0.41793785246725   -1.74695832352282
H         2.23120833337252   -1.58341037970091   -3.40681518353333
H         5.83506278403560    0.64964892152996   -2.57227560151428
H         4.63052844206690    1.70782205743510   -0.68388918912929
H         5.32824133666433   -0.64586785576217   -4.81139544122914
H         3.81011042890626   -1.56473987231917   -5.11461793568791
H         5.80831429365868   -2.58240822463463   -2.97050813744986
H         3.57122490342798   -3.73381536166720   -4.67792168576092
H         3.80642289387722   -3.70047429482619   -2.81295737398797
H         4.29916913730348   -6.06227295798154   -3.84020897047658
H         5.77911133719236   -5.31820599435007   -3.42564940342023
H         4.40617080272412   -5.54979591533740   -6.01627550579464
H         5.99822366407162   -6.13830950790798   -5.61857106002145
H         5.10808704257561   -3.33333461535539   -6.55278765230931
H         6.62878677385847   -4.13261629079635   -6.78104886141579
H         6.97299588182754   -2.21630805969651   -5.28158011201048
H         7.18523130812534   -3.64174563364833   -4.39214124086993
