35
 energy: -44.221985409021 gnorm: 0.098594674329 xtb: 6.4.1 (025e99ea0bd20707e8cccc6e19fe66a0758c6dd1)
C         0.75546981445740    0.92976506757003    0.14747910999741
O         2.16574400741393    0.76034711083246    0.09180474677806
C         2.68904649732110    0.33076764584953   -1.09659041224916
C         1.99024950674711    0.13013959008309   -2.28785040844440
C         2.76017477010993   -0.23857363508423   -3.39544170229007
C         4.10461488904449   -0.62608278153141   -3.31058345197549
C         4.77560041107378   -0.39450279344747   -2.10244981656615
C         4.06538481794354    0.13703102963002   -1.01298203350137
C         4.91851763018664   -1.05950920820652   -4.51239507145870
C         5.72081504426538   -2.35795004146144   -4.23151000652572
C         4.94355304055146   -3.30733117661619   -3.30458386930364
C         5.33476028478096   -4.76936621249223   -3.49759124587403
C         4.93310053811718   -5.17557323589720   -4.90223464173184
C         5.16605341073654   -4.09906877369006   -5.94276851872521
C         6.21846174148548   -3.10971642030084   -5.47599300180709
H         0.35222895706854   -0.00599996459794   -0.25324145735672
H         0.44344960867944    1.84325685379670   -0.36843556178185
H         0.50708098907527    1.03799173447916    1.20842008361758
H         0.92609317183831    0.34910781904826   -2.27817956918049
H         2.16229918988257   -0.17699258720457   -4.30303503465275
H         5.86013994380457   -0.39906318985644   -2.14499031011072
H         4.65756324517325    0.18345566151594   -0.10388245616724
H         5.62644698094226   -0.25469093039279   -4.75797376312706
H         4.20664610474281   -1.22034930345651   -5.33338962825878
H         6.65851230444111   -2.14747666907755   -3.69010440631030
H         3.86843082273612   -3.19867476925104   -3.48460845279533
H         5.09008005734873   -2.92769304150003   -2.28260515901255
H         4.82586949719118   -5.44418248995392   -2.79742945552604
H         6.41232886960720   -4.91163646066741   -3.34312518819824
H         3.94600463249048   -5.65483159610232   -4.87665178523711
H         5.59699764489278   -5.99774156856248   -5.19254073639928
H         4.22787537499954   -3.58963218510250   -6.18805840872572
H         5.50130608629368   -4.41132695835545   -6.94031647569220
H         6.44736860765156   -2.54874484601300   -6.38769901497479
H         7.14054271775315   -3.64084923230840   -5.19647453041064
