35
 energy: -44.225564307515 gnorm: 0.088633647772 xtb: 6.4.1 (025e99ea0bd20707e8cccc6e19fe66a0758c6dd1)
C         0.68396830391440    0.93322255802182    0.14725710699904
O         2.09814384937768    0.78906142932298    0.14656813400520
C         2.76530599097088    0.41425849177636   -0.98704755004471
C         2.20031342016236    0.54763590087411   -2.25616658331581
C         2.81496564718206    0.04914914879248   -3.40907874603854
C         4.02622886608465   -0.64047660078267   -3.26027928441317
C         4.64699136077301   -0.60491773795842   -2.00456146258255
C         4.06201848676042   -0.07232806420641   -0.84351476573599
C         4.70365020640541   -1.20986909806652   -4.48972625084092
C         5.71086303127431   -2.36486936936752   -4.24473059049607
C         5.11266415342225   -3.44453631276623   -3.32759906836877
C         5.60124570881070   -4.86641328442001   -3.58720520368171
C         5.10689343354798   -5.26299044328312   -4.96477558472945
C         5.05333040221184   -4.08256943210867   -5.91323585712347
C         6.04484176168981   -2.97216754746172   -5.61629538922428
H         0.36236419145532    0.86933581809599    1.19192242976125
H         0.16633692197819    0.15216853829316   -0.41843200547666
H         0.63753280130801    1.91978450025789   -0.32554840292770
H         1.20226608113976    0.97059761510608   -2.33015464697368
H         2.31932056143023    0.11383497345410   -4.37609725634083
H         5.69347458761622   -0.88395280813784   -1.93336606727278
H         4.64960509989240    0.05991142466505    0.06011528554364
H         5.25614205152037   -0.40023597546721   -4.98817614069646
H         3.98596081841761   -1.58503613419748   -5.23190837629645
H         6.65760759029250   -1.93956834885409   -3.87124832496468
H         4.02941508210429   -3.44855844255937   -3.49087222480008
H         5.38789066185538   -3.07637193781003   -2.32822870145268
H         5.18733677468016   -5.59559233074242   -2.87900276910937
H         6.68789439886022   -4.86377395010228   -3.43086486723142
H         4.12454020379985   -5.73918530093861   -4.85110071446938
H         5.70494384214373   -6.10235332907681   -5.33733889394855
H         4.03559787720017   -3.68314125309575   -5.84579377869925
H         5.09823580250028   -4.47866550767975   -6.93602266869712
H         5.98970087956003   -2.27341867721985   -6.45713117623118
H         7.07863135693586   -3.34609190090522   -5.66017728033859
