35
 energy: -44.220668476938 gnorm: 0.096632644438 xtb: 6.4.1 (025e99ea0bd20707e8cccc6e19fe66a0758c6dd1)
C         1.90616061182394    2.36869973792277    0.42658345084289
O         2.26975263194635    0.99827665163991    0.32452081508249
C         2.71747720106309    0.39557967844303   -0.81870538604119
C         1.79481725044141   -0.09514054630893   -1.74367107738559
C         2.28408106692151   -0.84537172480174   -2.81757375113056
C         3.66716735340456   -0.89705505408140   -3.03957528809644
C         4.59802141919181   -0.38695452901676   -2.12483712023915
C         4.08995653960495    0.20557307148402   -0.95665238846616
C         4.16608282880466   -1.40926422765495   -4.37500497192792
C         5.16872776999086   -2.58653226747051   -4.24359242258587
C         4.36285597930345   -3.86525424762674   -3.96058431491910
C         4.30067380613519   -4.90958538499846   -5.07114599996722
C         5.71075132828337   -5.38797083714568   -5.35782789534016
C         6.71021901994104   -4.25018595611972   -5.30935578115115
C         6.09619789570626   -2.86774081128053   -5.43617943282877
H         1.84650322662643    2.51810838546428    1.50961364891608
H         0.90027931421173    2.52655580631364    0.02499152232927
H         2.65207058412027    3.02453362860149   -0.03440026627111
H         0.72565325312442   -0.10375170811412   -1.55058165798905
H         1.55675326136693   -1.17189643068933   -3.55875455615175
H         5.65837696260382   -0.38300115233250   -2.35654162993077
H         4.74029819050365    0.64896270054093   -0.20848532555058
H         4.79939967441482   -0.63994665169938   -4.84004859134465
H         3.34946569523448   -1.72412339021145   -5.03882937044233
H         5.79761693715138   -2.37142753698085   -3.36329497688682
H         3.40457043516447   -3.60548119662475   -3.49764843610751
H         4.90277328098882   -4.41955752094585   -3.17874484541727
H         3.92204863687119   -4.47366474738267   -6.00452135565236
H         3.57690641177499   -5.68847965612006   -4.79776144422358
H         5.63961349568946   -5.85363087941172   -6.34919136034020
H         5.95800350797471   -6.11228581635899   -4.57346067590375
H         7.50076903482673   -4.39770435891550   -6.05308946322598
H         7.08735510226630   -4.27560979169016   -4.27876203885745
H         5.60527863261128   -2.75153447280677   -6.40766781794534
H         6.82750131435462   -2.04765267740052   -5.38035174088232
