35
 energy: -44.222400360789 gnorm: 0.113129803739 xtb: 6.4.1 (025e99ea0bd20707e8cccc6e19fe66a0758c6dd1)
C         0.90179726698523    0.98498803398200    0.46894429242856
O         2.24757324487645    1.19961023394681    0.06459333467808
C         2.82971888074597    0.72039870891006   -1.07651570529384
C         2.10812226561662   -0.21251342385992   -1.82260049435272
C         2.73038821647610   -0.81619403032119   -2.91980040205542
C         4.07377909534623   -0.56832684293995   -3.23403965093905
C         4.73001408971579    0.28602360208895   -2.33800467696807
C         4.16168273541509    1.05387011696559   -1.30781749659247
C         4.75179710435136   -1.24334212841486   -4.40847280950422
C         5.30741968069539   -2.63430937152912   -4.00224645705700
C         4.19980381496360   -3.69305888799470   -3.87228728912467
C         4.79822596155460   -5.09275365637515   -3.97517991898447
C         5.47170801638911   -5.33663582625913   -5.31170570513333
C         5.88062388475148   -4.06844441980715   -6.03303643206439
C         6.36525123969482   -3.01997678928261   -5.04809343185754
H         0.76702407236496   -0.02308888330180    0.87447291987125
H         0.22612941408923    1.31993849354371   -0.32432296448130
H         0.75311794103365    1.69580917112771    1.28847680444014
H         1.04919126409359   -0.25403036859069   -1.58299498859109
H         2.11950653377050   -1.46841312625873   -3.54141677130043
H         5.76811442503526    0.45002611809585   -2.60912707799427
H         4.69924384232752    1.75194279040760   -0.67298274494740
H         5.56460871862093   -0.59759655370208   -4.77117826575881
H         4.07924504511603   -1.36893496190859   -5.26786959240183
H         5.80435075840376   -2.50033714303416   -3.02664091873210
H         3.53896253989501   -3.61261244738842   -4.74229880064656
H         3.57424592951274   -3.44012035848648   -3.00353231963866
H         4.03103420031957   -5.84153730057617   -3.73999226851110
H         5.48594508672941   -5.27549495068555   -3.13917593187063
H         4.89572620573981   -6.09472018544492   -5.85783247043913
H         6.36864567528892   -5.91329951285797   -5.05880336591051
H         4.98956786947483   -3.61577429310137   -6.48134406098436
H         6.59415163001484   -4.26479908170084   -6.84379191938585
H         6.78996956118402   -2.23829917806334   -5.68597255669029
H         7.22776547007269   -3.49072585209602   -4.55318890471176
