35
 energy: -44.224143188409 gnorm: 0.084223101957 xtb: 6.4.1 (025e99ea0bd20707e8cccc6e19fe66a0758c6dd1)
C         2.48010432281468    2.46560371179606    0.54440202649342
O         1.96531136035146    1.20098583402859    0.14892104388326
C         2.55507658703256    0.50419285979713   -0.86956980344888
C         1.73750494912729   -0.40431301172481   -1.54326333343643
C         2.09975846720617   -1.09340275511101   -2.70490896469724
C         3.41023516065916   -1.01511343172032   -3.19623895386156
C         4.28302111059917   -0.25930066044380   -2.40224303386604
C         3.88007912120381    0.50957837172928   -1.29755427695322
C         4.04793897043163   -1.68531112598633   -4.39574561945503
C         5.13889911845174   -2.73048576160874   -4.04086237217665
C         4.34126439142599   -4.03331755725409   -3.86462106252136
C         4.34887008171447   -4.79609878538178   -5.18596445515999
C         5.75093428578034   -5.14791395828993   -5.64400356163852
C         6.84287903749203   -4.22360091005825   -5.14486260029636
C         6.30136383694745   -2.80916801298734   -5.04287422103803
H         1.74144955654644    2.98290700800679    1.16538736625564
H         2.72425980246896    3.07391125019660   -0.33214907990882
H         3.38735740087778    2.35477773396103    1.14740718604109
H         0.73833633012573   -0.46806821844872   -1.12128384344040
H         1.35625148717158   -1.73320533348511   -3.17695042555448
H         5.34805948259464   -0.33449394089501   -2.59742434272501
H         4.66112302863421    1.07809851128987   -0.80152216761365
H         4.57692918547296   -0.91883125560649   -4.98045348742038
H         3.33944243279724   -2.16451120194479   -5.08499347999814
H         5.48371956432574   -2.55701278792029   -3.00756608725636
H         3.38666558294913   -3.74216972844601   -3.41287233720815
H         4.79972155655162   -4.66179513726310   -3.08688799255476
H         3.86005095940154   -4.13464062469018   -5.91267096042777
H         3.62845889388672   -5.62419568134656   -5.20872176738394
H         5.69471526879536   -5.16856058618239   -6.73995726786553
H         6.01203985961382   -6.13240897754016   -5.23953946958069
H         7.63770883134973   -4.32111980177718   -5.89226240031959
H         7.34506905610826   -4.51563271515510   -4.21345287933395
H         5.93657430740054   -2.50337873957456   -6.02863121012584
H         7.07775955929768   -2.05921692113367   -4.83015607098696
