35
 energy: -44.217113687370 gnorm: 0.100025123057 xtb: 6.4.1 (025e99ea0bd20707e8cccc6e19fe66a0758c6dd1)
C         1.05940706458357    0.92787641325018    0.48381148419402
O         2.35679323861779    1.37802270552872    0.11661559388890
C         2.78893488186821    0.72465891098835   -1.00456076694243
C         2.09567714142849   -0.25629207265827   -1.71505222933471
C         2.67426608118002   -0.92697794200396   -2.79713732114906
C         3.95489240858082   -0.60610155680369   -3.26821912715788
C         4.62935251280032    0.40010349704840   -2.56388063221594
C         4.03582421892669    1.09836448618004   -1.49897208804548
C         4.71873974436608   -1.21895698412963   -4.42389762525275
C         5.23712103053970   -2.60727718324445   -3.96305703696974
C         4.10916892506948   -3.65237484167384   -3.97521315933851
C         4.78344742561190   -5.01468403483232   -4.10675620921416
C         5.49548489874443   -5.37472971639646   -5.39622412812383
C         5.93309054738034   -4.03164626544504   -5.94437355183361
C         6.40166512045775   -3.11996445157350   -4.82475982337390
H         1.07354048061049   -0.16633357382511    0.52043266200349
H         0.43268065680572    1.36908658433770   -0.29755872311458
H         0.84752944991496    1.43509472646792    1.43082955778737
H         1.21891042748324   -0.78180727642072   -1.34683594871472
H         2.02837283600625   -1.63495904939113   -3.31342965032162
H         5.63353465210966    0.69731288924861   -2.84908460469289
H         4.55114374941520    1.90833684035524   -0.99134707923791
H         5.59049086188507   -0.59462693763400   -4.66775681563420
H         4.18326109207950   -1.24693147523401   -5.38261692823932
H         5.65905731167571   -2.55794372026285   -2.94510261353744
H         3.50969005577854   -3.47726284589604   -4.87524856258098
H         3.61631287213875   -3.67230378620321   -2.99198810082101
H         4.06440408577555   -5.81022654105247   -3.87295678012066
H         5.51371032078703   -5.12986765931893   -3.29515071375801
H         4.81477321601995   -5.91487176760231   -6.06673106767689
H         6.32782472721680   -6.08480950550729   -5.33301916332174
H         5.05117714451235   -3.63157800068157   -6.45627679422827
H         6.79232213903020   -4.18170597515071   -6.61086032107121
H         7.08261223444194   -2.31042158138811   -5.10626770999721
H         7.07917039726599   -3.65664425503736   -4.14400483173367
