35
 energy: -44.221670814259 gnorm: 0.091868719210 xtb: 6.4.1 (025e99ea0bd20707e8cccc6e19fe66a0758c6dd1)
C         0.99055821054006    1.00930795567770    0.49855242819548
O         2.28071296428130    1.36337127824257    0.01812006098902
C         2.78597332837098    0.63260522953181   -1.02176456310384
C         2.07936064493286   -0.32324157259153   -1.75301325964529
C         2.68385796779369   -0.82969327369294   -2.90782168672588
C         4.00243886625877   -0.51206041824127   -3.26185177925928
C         4.68672511691316    0.37390513376933   -2.41908542587061
C         4.11754964416860    0.95321694395416   -1.27265114673497
C         4.70099325883106   -1.18106336470951   -4.42765799714218
C         5.30457352029887   -2.56980458544125   -4.08763615281127
C         4.20132291357893   -3.61099899671763   -3.83583240941120
C         4.69228909809849   -5.04061878957795   -4.04315065860522
C         5.43474568026146   -5.38521894540123   -5.31961715810122
C         6.03607545445975   -4.17392965899916   -6.00300607824168
C         6.41413151479482   -3.08070396067157   -5.02005544625714
H         1.11790002839069   -0.01066793998552    0.87573884447731
H         0.38137403910057    1.15346946899720   -0.39928046754412
H         0.64947303825042    1.70426977532691    1.27295203076084
H         1.08221857614394   -0.61621471969697   -1.43624243881193
H         2.12419863251040   -1.48652844391324   -3.57138938832151
H         5.67291518985130    0.60439999563587   -2.80941574453496
H         4.63080157354612    1.57988735724150   -0.54936058891749
H         5.50486564755448   -0.50065502878941   -4.74394742443559
H         4.06165541260890   -1.25249018861582   -5.31805565678529
H         5.76214840579138   -2.41840845236887   -3.09546698506393
H         3.34596048917203   -3.41253626101964   -4.49086715334818
H         3.75388409911858   -3.50954585163074   -2.83606166989732
H         3.92416087794897   -5.80836197553561   -3.88464888142442
H         5.41389399296056   -5.29831723886001   -3.25693661135260
H         4.77544152500952   -5.91582186071713   -6.01853057450099
H         6.11441291168522   -6.20281082771512   -5.05392234610458
H         5.39727939585896   -3.67170066129592   -6.73756473860084
H         6.95492076291490   -4.41509640562259   -6.55306367253325
H         6.84320485114944   -2.27552197385757   -5.62493011010715
H         7.22297629600141   -3.39010294890688   -4.34144778674851
