35
 energy: -44.226492838713 gnorm: 0.089875827255 xtb: 6.4.1 (025e99ea0bd20707e8cccc6e19fe66a0758c6dd1)
C         1.00135075646580    1.12286430889053    0.50041925226340
O         2.40183010803688    1.03724607116579    0.27237873842593
C         2.87796521094337    0.61448551041085   -0.93809056677092
C         2.15762624666416   -0.06938101017123   -1.91845151932538
C         2.74502652085729   -0.63038716143219   -3.05675106442500
C         4.12305056968635   -0.47754228923103   -3.26308013011462
C         4.88220520669737    0.09749322041781   -2.23523960192576
C         4.26170980105327    0.62956457485661   -1.09254105406051
C         4.86303680294859   -1.09468584231675   -4.43192637144581
C         5.27938790437407   -2.57016744923857   -4.19082065886826
C         4.06150490853654   -3.50001814817072   -4.06123856595116
C         4.43199309030893   -4.98003174294420   -4.07305673667019
C         5.51895482683094   -5.41508114996386   -5.03669773003748
C         5.82194027983552   -4.27821148086768   -5.99145781494214
C         6.24124593897375   -2.98559564688527   -5.31500542865730
H         0.95028408181590    1.62638190361882    1.47134591511918
H         0.51404367617010    0.14770829173486    0.59837000590965
H         0.46006909326008    1.72395310072781   -0.23762694587643
H         1.18632156128571   -0.47968610845735   -1.65637087362735
H         2.13085203066178   -1.14285947544596   -3.79508359037058
H         5.96403091806048    0.17269059071614   -2.28057143966670
H         4.85917368676948    1.14723830724473   -0.34799864792151
H         5.83052082095072   -0.57390322514079   -4.47625998686239
H         4.26720948187021   -1.03433306306382   -5.35280096277844
H         5.88554140634115   -2.61664071854142   -3.27043302908775
H         3.39830492920048   -3.31862172541980   -4.91409492913393
H         3.44057756278211   -3.20214941380736   -3.20347448793110
H         3.49335569560113   -5.53259789125694   -4.20797844888010
H         4.72557068707875   -5.25395412894432   -3.05127722848971
H         5.21515361118553   -6.36078405864707   -5.50365834464565
H         6.46260235205596   -5.66022482842768   -4.53626622705312
H         4.81376615403528   -4.12532902104140   -6.39156115423719
H         6.64319431414635   -4.56287393348662   -6.66191329970822
H         6.33363489217993   -2.28163169862286   -6.14818869819540
H         7.26545359724401   -3.11603786389118   -4.93494034170116
