35
 energy: -44.217036316264 gnorm: 0.089903896738 xtb: 6.4.1 (025e99ea0bd20707e8cccc6e19fe66a0758c6dd1)
C         1.18505059276498    1.36366239567706    0.34554144504674
O         2.59162877162630    1.18162808935477    0.25026962334273
C         3.03517861406410    0.40920728751477   -0.78765943050344
C         2.25248739788043   -0.53441087834914   -1.45447909144667
C         2.67603643657824   -0.95587429615057   -2.71878429358693
C         3.93617257069327   -0.59373139887442   -3.21455941241987
C         4.72339757944265    0.30842219562479   -2.48666284063656
C         4.30663781810338    0.76919815408528   -1.22655520049285
C         4.32850671492140   -1.25999106429538   -4.51717958133788
C         4.89966257658560   -2.64118716049914   -4.09932253429620
C         3.90777555451526   -3.77053189727519   -4.42396609279486
C         4.55790649659677   -5.15015378353285   -4.38136779322983
C         5.80248290223416   -5.23389979300482   -5.24355915579275
C         6.27379500284273   -3.93671318650802   -5.86886824916740
C         6.26528556730601   -2.91012598326697   -4.75069694521509
H         0.73943354813299    0.52177496300075    0.88543713615324
H         0.56335231856146    1.44897179581032   -0.55123353283305
H         1.00897128453276    2.22742262371813    0.99509522725733
H         1.26719529669959   -0.80314347729826   -1.08373444755098
H         1.93896831696442   -1.46226348212855   -3.33948847491706
H         5.62147468645471    0.79998673123431   -2.84704916729351
H         4.76818372211563    1.63436716997264   -0.75991772259030
H         4.99440585208596   -0.61852137026382   -5.11241087191682
H         3.49677853929998   -1.41459981636206   -5.21788425790429
H         5.12525560090649   -2.59054170132702   -3.02078739358173
H         3.36341954556499   -3.50049861211897   -5.33548208944018
H         3.19866536946381   -3.69560787025675   -3.58635944000295
H         3.80367741675471   -5.89122147315533   -4.67552854976030
H         4.78876368217009   -5.31498866977505   -3.32080706260658
H         5.61042356194579   -5.89283001706945   -6.10007859883822
H         6.60508173871113   -5.67838995945044   -4.64417500155487
H         5.58721562230256   -3.70734671673807   -6.69098172827378
H         7.31858938657879   -4.08280794925793   -6.17228623488258
H         6.65574600303847   -1.94072118516255   -5.07641201647868
H         6.97507237251542   -3.26028836111204   -3.98646205293577
