35
 energy: -44.222055397665 gnorm: 0.102984044651 xtb: 6.4.1 (025e99ea0bd20707e8cccc6e19fe66a0758c6dd1)
C         0.77842393258274    1.11134656828683    0.18814446247125
O         2.18752179167141    1.25007851475613    0.06216010428629
C         2.79268942196263    0.59913431883494   -0.97741235218225
C         2.04897496627696   -0.13688735227401   -1.90090040156956
C         2.74102507965835   -0.71850516554978   -2.96780256354718
C         4.12303656583429   -0.51150654241125   -3.07770865211909
C         4.83948221455939    0.20800162917746   -2.11207343731072
C         4.15892014130172    0.85297535260591   -1.06578541636791
C         4.80008713978515   -1.11887523922305   -4.28905216465268
C         5.43829252600048   -2.52451789401890   -4.12971364005619
C         4.54028986291503   -3.67048195371675   -3.63472837862271
C         5.07822628930603   -5.08418522766411   -3.83450037182059
C         5.30449620476696   -5.41250140412795   -5.29750009065713
C         5.59234941445088   -4.18429433439116   -6.13683766723853
C         6.18358634392084   -3.00590450430170   -5.38444345319545
H         0.53841001870244    0.08671926875108    0.49041681791480
H         0.19586120552282    1.26740416928842   -0.72523305887205
H         0.57183875262053    1.80159586201902    1.01269540015472
H         1.00882575990770   -0.41727336952153   -1.75968196206528
H         2.18685385974539   -1.39960563916270   -3.61120718482193
H         5.92026050364494    0.30784500944831   -2.11453908376258
H         4.65326143599278    1.37521177205165   -0.25203582636718
H         5.65156492223115   -0.50013311310004   -4.60740588365634
H         4.17640992808135   -1.20137438706598   -5.18954274680932
H         6.19019121545575   -2.51597510790294   -3.32270025827216
H         3.63211796032097   -3.63657991440428   -4.24642871032856
H         4.22025111098786   -3.41835369823075   -2.61294449641320
H         4.29184936811358   -5.79475940564196   -3.54942310289427
H         5.89674014503035   -5.33857494153131   -3.14851525500125
H         4.39823741783216   -5.89399791113279   -5.68680396890748
H         6.13173312191250   -6.08866052341070   -5.54139697604423
H         4.66225863794036   -3.83514289384904   -6.59824335948112
H         6.33182660103421   -4.44335993395390   -6.90564190876582
H         6.37950717835611   -2.15384466261405   -6.04315763206890
H         7.19980634306676   -3.31741160859671   -5.10031988288787
