35
 energy: -44.221440149012 gnorm: 0.106503168050 xtb: 6.4.1 (025e99ea0bd20707e8cccc6e19fe66a0758c6dd1)
C         1.06387010195554    0.97986187010566    0.52178370691114
O         2.37062321190013    1.27195905998724    0.04455114521649
C         2.81149354128744    0.56262464551694   -1.03856708684484
C         2.06908066950046   -0.33159929486565   -1.81113157879053
C         2.64696480645224   -0.80608820140490   -2.99282656105657
C         3.98470084030125   -0.50816109844688   -3.28708028261827
C         4.71565733738981    0.47313332370694   -2.60429070289605
C         4.07021804112234    0.97941265782521   -1.46369270535163
C         4.73900867671773   -1.17921579267840   -4.41639539043157
C         5.20725923818101   -2.58717814505121   -3.96152222080202
C         4.13666481995177   -3.69083787338271   -3.98190919197858
C         4.85724737691612   -5.03568003009038   -3.98323500231264
C         5.33611985574245   -5.32731911275245   -5.39213015954361
C         5.96024121670621   -4.03339706931342   -5.87387482322590
C         6.41495321914009   -3.13420518695009   -4.73855473079318
H         0.99962476200502   -0.07365824680187    0.81299540744316
H         0.32328634953649    1.14755332811815   -0.26651007140164
H         0.83119842235681    1.56198226973854    1.41956179594325
H         1.14686324693523   -0.78454833159875   -1.45783070454279
H         2.17334626048676   -1.51202840872131   -3.67275816852940
H         5.74022391250023    0.60998982805407   -2.93533467980943
H         4.59999727663050    1.73655641883540   -0.89328945866081
H         5.54102842082722   -0.47903942527615   -4.69157298541255
H         4.09581111372890   -1.30572307413872   -5.29784616762728
H         5.55910386435966   -2.53504521432530   -2.91740405728463
H         3.46052237214942   -3.35540570102378   -4.77589880124199
H         3.57458788478324   -3.60352967083749   -3.04037716189929
H         4.20608241905068   -5.82605418457731   -3.58843597837072
H         5.70487117882660   -5.01797876732022   -3.28575726182804
H         4.51001526457240   -5.67129651668873   -6.02768671570348
H         6.03777195148176   -6.16678393881658   -5.32903573318297
H         5.24391433777536   -3.45617738096436   -6.46848732695155
H         6.76763716000332   -4.25009884876843   -6.58531954117951
H         7.10046851431313   -2.36003808531918   -5.09776135247916
H         7.10936418754326   -3.73500939867313   -4.13250714729145
