35
 energy: -44.210955653404 gnorm: 0.078792182624 xtb: 6.4.1 (025e99ea0bd20707e8cccc6e19fe66a0758c6dd1)
C         1.85658390090861    0.59824906951130    0.93677683133956
O         2.72551640749694    1.15328916977906   -0.04177421989351
C         2.75810289482693    0.63227369922217   -1.30595303019517
C         3.74322547347634    1.07538232945786   -2.18961444640790
C         4.01761548072179    0.35771435522913   -3.35801319504917
C         3.26173201927327   -0.73094925099608   -3.81445076308704
C         2.17056922090792   -1.06045171654071   -2.99944794067289
C         1.94978217507100   -0.39733016224624   -1.78067916954248
C         3.72521774263115   -1.55837833716997   -4.99563211588531
C         4.86517011582520   -2.57239067002561   -4.71135456477634
C         5.57364532562511   -2.55850416841447   -3.34661178503580
C         6.46406477434164   -3.79525999953780   -3.27292584029941
C         6.68215027786772   -4.56420546960180   -4.56153724131357
C         5.35620636977029   -5.08710018419002   -5.07563209338306
C         4.43500151913890   -3.90899486558396   -5.33584399591381
H         0.78567983952258    0.64132974617043    0.71284626413746
H         2.08758138654747    1.09580024455530    1.88391715434435
H         2.05119732370764   -0.44768785330271    1.19590485944880
H         4.14444100478394    2.02735730087514   -1.85310429874892
H         4.99318943595561    0.54387014294306   -3.80363027543384
H         1.52548215608786   -1.92845628510126   -3.09157411138827
H         1.12234396772302   -0.70976348088622   -1.15058075634168
H         4.14207933188885   -0.88491433686344   -5.75844137908905
H         2.86879128334407   -2.09585932920796   -5.42494617783424
H         5.69385167897086   -2.28635052150617   -5.38080442927522
H         4.92746061771403   -2.51382122906157   -2.46312347026409
H         6.15382578881125   -1.62436323741401   -3.37502155411602
H         6.02787918334982   -4.50655830548185   -2.55992498137081
H         7.41434662501525   -3.44246944197690   -2.85131242927843
H         7.39822147947790   -5.39134543552272   -4.47331651736443
H         7.06961056560270   -3.88876566028327   -5.33267494168221
H         4.95236099201321   -5.84181792176981   -4.39212580894257
H         5.61052244986689   -5.62550489996658   -5.99782792363803
H         3.44491963132540   -4.22434846104718   -4.99148185828357
H         4.35874994032669   -3.70429868827969   -6.41415338510652
