35
 energy: -44.220437567570 gnorm: 0.109497741467 xtb: 6.4.1 (025e99ea0bd20707e8cccc6e19fe66a0758c6dd1)
C         0.76692367099423    1.08713805761321    0.09042922652363
O         2.15805349169319    0.79956585716437    0.14273048685640
C         2.78182350813177    0.30672086155276   -0.97023035354945
C         2.05575000463879   -0.06054441297092   -2.10407456836726
C         2.73944550222510   -0.47943786776319   -3.24975408373118
C         4.13787658458945   -0.53225802947914   -3.33027756746619
C         4.82660987800499   -0.16612879838825   -2.16621847662228
C         4.16387159019090    0.13716773866359   -0.96510915761821
C         4.92914904629692   -1.08124685507168   -4.49952794971066
C         5.62164274292079   -2.43328202751054   -4.18175517325361
C         4.69711871021757   -3.37778741962165   -3.39574136420218
C         5.26584986818538   -4.78600694012021   -3.54170046315829
C         5.17861715892393   -5.20227110266949   -4.99719775638906
C         5.15402691205074   -4.08543021986609   -6.02086831456023
C         6.12097058877715   -3.03534681296000   -5.50452973997933
H         0.22017042311305    0.14614668174512   -0.02970599374222
H         0.65690595037072    1.75894884448382   -0.76663446368068
H         0.36006567426802    1.56879457375608    0.98568300938242
H         0.96977961004918   -0.07760588399574   -2.13316951273555
H         2.31187597769711   -0.82298168149359   -4.19003863818724
H         5.90158687031231   -0.03955388385424   -2.24659099381469
H         4.73177841877208    0.35726618469549   -0.06603681862864
H         5.69145113693268   -0.32879612067462   -4.74836270132073
H         4.25476009530251   -1.32992966686624   -5.33020181239719
H         6.48978389699776   -2.15024083622616   -3.56295484885540
H         3.74620660253655   -3.44216961192970   -3.93585611909112
H         4.56981939019143   -2.94459915666556   -2.39265683269859
H         4.74204850827865   -5.45969413617404   -2.85151854994544
H         6.22404602840065   -4.71456067388380   -3.01065414419662
H         4.26787513546503   -5.81370103862750   -5.03466489775002
H         6.03938781613295   -5.83883742811428   -5.23140910040618
H         4.13539282379585   -3.68383150683906   -6.05207509719262
H         5.41527912811580   -4.34353593065339   -7.05533928024889
H         6.48055645891641   -2.29533464287205   -6.22659297004851
H         7.08746423722129   -3.52223328770781   -5.30629362488092
