35
 energy: -44.224939102577 gnorm: 0.095579309275 xtb: 6.4.1 (025e99ea0bd20707e8cccc6e19fe66a0758c6dd1)
C         2.36856809299912    1.82291696421539    0.77543006131304
O         3.14952101720442    1.88481250762012   -0.41072205550571
C         3.14089117720111    0.81444766667079   -1.26213951659873
C         2.21074497636317   -0.22400874728480   -1.32621399681137
C         2.33299988875833   -1.13148428387535   -2.38311262038256
C         3.35207686989078   -1.10097399415062   -3.34510779650637
C         4.28060814746100   -0.06002547086094   -3.21209065192134
C         4.07681186058028    0.97213643279437   -2.28097126708191
C         3.39473515090826   -2.10869458451433   -4.47529661635939
C         3.96248209898364   -3.47451677436902   -4.00548887436431
C         4.03231451789041   -4.37615382704135   -5.24920383002538
C         5.31615388289387   -5.20017790159206   -5.22507470078223
C         6.44758995217832   -4.19987589196453   -5.36147880576231
C         6.46413689021795   -3.18977514693974   -4.23220367004024
C         5.30620909849295   -3.36971753380094   -3.26727635419279
H         2.43145439174876    2.80137004176913    1.26278131472771
H         2.80125820436637    1.08803962900411    1.46152507631074
H         1.30939246740129    1.55617243999723    0.69796964423434
H         1.53993074622063   -0.39408383954773   -0.48862696065280
H         1.60414889213255   -1.91988921757078   -2.56246416116268
H         5.05191926945090    0.04091228633586   -3.96902341265912
H         4.72817581436514    1.83844278696163   -2.34828302133385
H         4.03755822203976   -1.81659244108533   -5.31830322829259
H         2.45787937782920   -2.30191318045932   -5.01532484454121
H         3.25965542120689   -3.88898390697462   -3.26323091579503
H         4.03984537839643   -3.77075827637146   -6.16218924314245
H         3.05873532488252   -4.88818153366539   -5.25183995195658
H         5.27298716468512   -5.78882220998398   -6.15038972237879
H         5.35925287393221   -5.86185916091167   -4.35010325521327
H         6.36269078427944   -3.67033739419554   -6.31912304919189
H         7.40293508840532   -4.73331244732028   -5.42278848142298
H         6.51505714560300   -2.16947229254505   -4.62750103653566
H         7.44478623631576   -3.23755605212649   -3.74124002353951
H         5.28788141790071   -2.53356415867204   -2.56101369195882
H         5.62973280032599   -4.31231912379503   -2.80112120361304
