35
 energy: -44.219522559650 gnorm: 0.093378370414 xtb: 6.4.1 (025e99ea0bd20707e8cccc6e19fe66a0758c6dd1)
C         0.84136291049822    1.20028255906162    0.18911740133757
O         2.24271373804296    0.96639185440478    0.23587616164575
C         2.82607233208600    0.49048932167851   -0.90599800611112
C         2.04331266831183   -0.15783335768255   -1.86236314347108
C         2.62792740952485   -0.66772152099303   -3.02586325916120
C         4.01627314861713   -0.61033820204719   -3.21048936001535
C         4.79910700166441    0.07570131182750   -2.27242821750443
C         4.18783508069065    0.65303275848906   -1.14685747460200
C         4.65476504481308   -1.23793938929542   -4.43241087382845
C         5.45922458408511   -2.51641637696892   -4.07622605800812
C         4.45442236047792   -3.59299168507854   -3.63349483378422
C         5.01178015282018   -4.98909962771994   -3.89440920825719
C         5.43540647429086   -5.29631055178560   -5.31761683797568
C         5.59904417329408   -4.00998392611494   -6.10147024658662
C         6.37053000039819   -3.09008463883605   -5.17256999347243
H         0.23522158544003    0.45114105934734    0.70894050941705
H         0.54200300464452    1.34959376206288   -0.85303499386957
H         0.81386885289855    2.16931267050393    0.69826423032399
H         1.00692932012760   -0.33218351180007   -1.58671678290298
H         1.99136004795957   -1.16586221775596   -3.75497981103406
H         5.85744607096822    0.28266526756729   -2.39547630006027
H         4.68105081056199    1.10630154378969   -0.29211877585952
H         5.38009872589481   -0.48541376579971   -4.77417331839337
H         3.92504614219265   -1.52618499479764   -5.20123300270431
H         6.08589516210744   -2.13349293846015   -3.25321399642405
H         3.55283655149134   -3.53463905078420   -4.25304374379054
H         4.15218932770335   -3.45864647740001   -2.58437981356628
H         4.35604278685724   -5.70859225559136   -3.38754409638602
H         5.97962948708863   -5.02190291442680   -3.37725714709010
H         4.67015440822864   -5.82167904209992   -5.90334596596801
H         6.39284088753990   -5.82920587920446   -5.33604722377939
H         4.61460211491732   -3.69592250194438   -6.46493971025632
H         6.02915842829484   -4.24702620453502   -7.08321061098650
H         6.85291851610623   -2.25744868873392   -5.69440714689397
H         7.17645308401155   -3.66293504183455   -4.69008023327935
