35
 energy: -44.222228717953 gnorm: 0.109331227965 xtb: 6.4.1 (025e99ea0bd20707e8cccc6e19fe66a0758c6dd1)
C         0.79099109988500    1.11251696894557    0.21358435373462
O         2.19385900689262    1.13073945425174   -0.01511840249848
C         2.72624223653107    0.44535099253931   -1.07222663729234
C         2.04053949622379   -0.34355324087404   -1.99694880448603
C         2.84144527212665   -0.80876604030833   -3.04462233012687
C         4.22409557576436   -0.64496993144050   -3.20689516696781
C         4.82189475407428    0.09301723503281   -2.17662878868991
C         4.10754706369782    0.62024188824067   -1.08776884663565
C         4.87240676167692   -1.18753183259614   -4.46386234439832
C         5.66703892562320   -2.47499572897794   -4.11814193657225
C         4.85154852729425   -3.52039035221053   -3.33918216899518
C         5.22617732367561   -4.93957228308760   -3.75561621529493
C         4.81769466391228   -5.12242370298592   -5.20443126336815
C         5.20569935809910   -3.93737509747085   -6.06521683945742
C         6.28184168795467   -3.12555102813361   -5.36727692532624
H         0.58511880867208    1.73562515444684    1.09004835482350
H         0.47400456549087    0.09201146595512    0.45039621035180
H         0.16191159220204    1.49365215450409   -0.59758807456284
H         1.01591036986999   -0.68630119260352   -1.88236999137624
H         2.27140126881217   -1.22543836069076   -3.87311922963242
H         5.88893126479834    0.24452307374301   -2.30521941275575
H         4.70130526150905    1.17499576756997   -0.36735791629654
H         5.56963409439983   -0.47917605487186   -4.93429985588565
H         4.09840315704709   -1.44753945953002   -5.19869369790130
H         6.46278174410964   -2.14468952160134   -3.42938479874861
H         3.78663967324746   -3.47464428841620   -3.59212342656542
H         4.97590362853829   -3.37694394776235   -2.25567180806800
H         4.80295196940734   -5.78094647532026   -3.19210655009197
H         6.31995498642967   -5.03017449605850   -3.72922860243372
H         3.75560604518612   -5.39830195755096   -5.22810277516969
H         5.28897031989375   -6.05273453711058   -5.54120829954412
H         4.32303393269469   -3.33719709183821   -6.31130402551834
H         5.55895802561447   -4.28913692196845   -7.04321141492438
H         6.76246495683211   -2.37163182020266   -5.99886414775183
H         7.24257559676333   -3.57084456730658   -5.06866348277586
