35
 energy: -44.222787919406 gnorm: 0.081422705624 xtb: 6.4.1 (025e99ea0bd20707e8cccc6e19fe66a0758c6dd1)
C         1.09048442383460    0.66167929568844    0.58247266790858
O         2.46217473401467    0.83803463330786    0.25377848244894
C         2.92493626539482    0.47082325194586   -0.97978329009077
C         2.19314847185581    0.32407995020411   -2.15902978056235
C         2.85068389474447   -0.06083816032201   -3.33162437036784
C         4.19476033143774   -0.45795512599257   -3.35692635117308
C         4.91693765548674   -0.37071118291535   -2.15930947910884
C         4.24046967293198    0.01464005122322   -0.98979250393284
C         4.80144150577721   -0.90241313673334   -4.67185690706916
C         5.24077880268546   -2.38842176857050   -4.58649142879583
C         4.21186357166715   -3.29909839460029   -3.89608983197802
C         4.74351455952516   -4.66723532837761   -3.47968862859909
C         5.88857102725955   -5.04800836921399   -4.39795620769413
C         5.53620330321328   -4.54186358918719   -5.78196997154344
C         5.52771223095465   -3.03340315943474   -5.95148632838180
H         1.01578181814186    0.55260345530663    1.66937576336034
H         0.71945523293816   -0.28619513678919    0.18015040733417
H         0.49117549168575    1.55651173086690    0.38471148719434
H         1.14094430688008    0.57776622000519   -2.25378738853778
H         2.29822486178353   -0.16926487497248   -4.26329264736289
H         6.00021813356138   -0.42898279270631   -2.12518729852960
H         4.62689613538753   -0.05136694959197    0.02293167384994
H         5.66616386824448   -0.27730732416986   -4.93775780201538
H         4.09105559201884   -0.77283118871480   -5.49963890887955
H         6.20688530070968   -2.37544565673482   -4.05435885319068
H         3.40114293197940   -3.46296661445118   -4.61440877425987
H         3.69673830070371   -2.89856467680858   -3.01050840654411
H         3.92574391779267   -5.34972885951852   -3.74431503331558
H         5.05752891152219   -4.73725165949420   -2.43004709816987
H         6.06800320314145   -6.12942836711307   -4.34285385913226
H         6.81194242110594   -4.61713755914250   -3.99455395356630
H         4.54701793299258   -4.94718940781687   -6.02091364792237
H         6.16511534715048   -5.04270787833554   -6.52938290740908
H         4.88160876406137   -2.85979437987679   -6.81791902662374
H         6.50287194049803   -2.64210154830892   -6.27769570926226
