35
 energy: -44.217210552528 gnorm: 0.106276321926 xtb: 6.4.1 (025e99ea0bd20707e8cccc6e19fe66a0758c6dd1)
C         0.89025275123914    1.07197756157236    0.06399235871379
O         2.28001474520944    0.78488146995137    0.14653219241271
C         2.76733258921012    0.23583514840469   -1.00747671209840
C         2.05519829398977    0.06453093505584   -2.19541142359966
C         2.77129083887771   -0.41340370653395   -3.29735643271321
C         4.16195868562709   -0.56564671987316   -3.38538221514413
C         4.78971506543418   -0.35529012338589   -2.15042885931771
C         4.13656658729119   -0.01169030369245   -0.95493286034885
C         4.85476225896635   -1.11746617109196   -4.61427026274186
C         5.66257770263786   -2.35402941957732   -4.13795971485635
C         4.68590453733915   -3.29627084814603   -3.41481141356998
C         5.16036518180585   -4.73963993023962   -3.55414626105410
C         5.17037714238520   -5.25410967921215   -4.98053274777387
C         5.18477996584542   -4.04972521547290   -5.89982066504824
C         6.18457367083026   -3.01060478434856   -5.42558228192452
H         0.22834303653044    0.26638776200507   -0.27027843245380
H         0.71439529449975    1.86418016049842   -0.67050134528309
H         0.49223351136691    1.21642921180510    1.07380430990142
H         0.97822442169828    0.17304714876879   -2.28933076176777
H         2.08939949823205   -0.73131413210758   -4.08407765058276
H         5.87419179170089   -0.32905328917909   -2.11467470691033
H         4.59330248842798    0.14453811233434    0.01783514137072
H         5.53808490970621   -0.31948875036578   -4.93908947636837
H         4.12613395792889   -1.34196171867370   -5.40507062957870
H         6.38644373964904   -1.93377325877233   -3.41956014043380
H         3.67409099378880   -3.10947976673023   -3.79090355524731
H         4.58511979650368   -3.02086832026771   -2.35460782326422
H         4.65930292622323   -5.44685214087883   -2.88082547405157
H         6.15215145886054   -4.74949108513858   -3.08348972007617
H         4.31254007228301   -5.90757063500403   -5.18499723761245
H         6.08197435510888   -5.83131573835435   -5.17242191520377
H         4.20022573618406   -3.56988144630090   -5.88327606629866
H         5.53862265443515   -4.37155544408963   -6.88786019624162
H         6.25989709293665   -2.30998199175001   -6.26328712756114
H         7.21569449282864   -3.34901721041792   -5.24466005307815
