32
 energy: -49.288918839933 gnorm: 0.130361889602 xtb: 6.4.1 (79825abcba525fcdf90b791dcacef51065a7a4e7)
C         2.23722223719967   -0.88710496840671    1.39319565162930
C         2.46109290172769    0.02714413501669    0.18792293747075
O         1.24132473849437    0.75681392083961   -0.01237713640096
C         0.93793181130707    1.72807397685764   -0.90929238530140
N        -0.11843309807381    2.42301070026415   -0.67251034106729
C         1.78306992015200    2.02951894442734   -2.19878277626745
C         3.23376247221857    2.45081707615792   -1.83556246045911
C         1.07850712866250    2.97696384679697   -3.19925058448398
C         1.40013017503532    1.91910847414982   -4.27046425759485
N         1.71437021287263    0.94852376218523   -3.23345162409782
C         2.04599358311039   -0.41259477810564   -3.35125002668334
N         2.21067160604174   -1.07290099530275   -4.45406810854656
C         2.03035044264521   -1.27025401099884   -2.10003835802114
C         2.94876329313543   -0.75738353985772   -1.04018518381361
N         4.15192820308528   -1.24879601424590   -1.01934235541779
O         5.07736069576757   -0.90960592048394   -0.04166868848940
H         3.21448364380144   -1.21681470258358    1.76336020632359
H         1.66689032169242   -1.76011777283573    1.06324734576771
H         1.63378709660212   -0.36343541380744    2.14274626244235
H         3.21426715226744    0.77168767991227    0.46979755459962
H        -0.46982167838556    2.12822996883920    0.24908880101965
H         3.06007097011760    3.33894872712133   -1.21414306736707
H         3.76942352995220    2.79135505608644   -2.72975481903193
H         3.92285217188177    1.81821231237808   -1.26968088223035
H         1.58946859213277    3.94095745473784   -3.15176114883405
H         0.04441384477203    2.99518023226605   -2.83099268630574
H         2.25497281776180    2.30340803224436   -4.84375290941231
H         0.59059531479885    1.52421400644660   -4.88521570803858
H         1.92164585738179   -0.44279086022896   -5.19873794262382
H         2.38644017627985   -2.27851525456208   -2.35505689750623
H         1.03854661149491   -1.33595384300172   -1.64254801607488
H         5.83318608485215   -1.40666434140785   -0.40958747243567
