32
 energy: -49.287202349478 gnorm: 0.116493700047 xtb: 6.4.1 (79825abcba525fcdf90b791dcacef51065a7a4e7)
C         1.80671380704746   -0.70891371262047    1.47742844177771
C         2.27912274675482    0.21630866871742    0.35517840219931
O         1.13690983272533    0.98679372718004   -0.04740690120476
C         1.14338723476316    1.87983163473473   -1.06833375965482
N         0.21771928773319    2.77117097871308   -1.00864610869741
C         2.08791452659272    1.80495495656020   -2.32139983414713
C         3.57085045818532    2.12979074535875   -1.99077512324690
C         1.56916589587584    2.66156358048823   -3.50128030109333
C         1.40458625379922    1.37856826243467   -4.33604653000250
N         1.96414365492171    0.61934967253925   -3.22849999634772
C         1.76937090501783   -0.76590082084459   -3.08836136188196
N         1.55966967332333   -1.49910681693807   -4.13610428159672
C         2.01337434660711   -1.39267818500347   -1.72859404771029
C         2.86750034971436   -0.54938365962288   -0.84026406839639
N         4.12904903727977   -0.85453366718361   -0.91029856171523
O         4.99253547885507   -0.04347479424057   -0.18649217011826
H         2.57183905005290   -1.21991934663843    2.07259796698035
H         1.02799481688073   -1.40997935840845    1.16374161239110
H         1.30244839261547   -0.00486042253151    2.14840925330877
H         2.98044670891937    0.91662630896613    0.82290668071859
H        -0.34701525125445    2.68582064223689   -0.15219715722587
H         4.20901106196636    1.24081014866192   -2.07779901152327
H         3.72270094086983    2.66814558562894   -1.04759203031328
H         3.94950602495462    2.92218991017946   -2.64191173692225
H         2.33326361426744    3.32719163200416   -3.90836076878144
H         0.69398380366842    3.27920882575801   -3.26072826474608
H         1.98882598404810    1.45800969771146   -5.26311446911966
H         0.33787651637698    1.30459967452869   -4.55021153905785
H         1.35375199862980   -0.97431177032376   -4.98303750826194
H         2.58981813745112   -2.30195842008030   -1.95073612754540
H         1.04274051740985   -1.65865457819443   -1.29915808860561
H         5.91251244609855   -0.31039567062114   -0.37648940290140
