32
 energy: -49.286555859845 gnorm: 0.115194922572 xtb: 6.4.1 (79825abcba525fcdf90b791dcacef51065a7a4e7)
C         1.93893736836166   -0.59386955051683    1.46091394039515
C         2.43483440034701    0.28221003476598    0.30973085214702
O         1.30031129162297    1.08892988542408   -0.04017324001716
C         1.11878895388397    1.84844160303430   -1.14924577746125
N         0.04431997536904    2.55424901686633   -1.10168637166006
C         2.05470030418104    1.92087571226296   -2.40890293552098
C         3.54128223571310    2.16589069264684   -2.02946677631878
C         1.43883410522169    2.74773275703602   -3.56303144897987
C         1.27114413266553    1.41623125946422   -4.31734036196661
N         2.05613841290412    0.72270229309001   -3.30789583576208
C         1.97518730967921   -0.67430332822385   -3.17255766570083
N         1.44414602631682   -1.47723058534634   -4.04010239117709
C         1.99814919429562   -1.25796990126536   -1.77250024101497
C         2.95706765226049   -0.57898877812298   -0.85094337810106
N         4.19757113504945   -0.96272117244147   -0.79240280532655
O         4.97844136442842   -0.24994699221043    0.10732808384074
H         2.72716194857931   -1.25743507791008    1.83394606182885
H         1.16148340513758   -1.29733986206601    1.14948082147704
H         1.60541380317462   -0.04986831221738    2.35142759598810
H         3.24258653615234    0.89494389314427    0.72586008273575
H        -0.43771434200814    2.37313007516138   -0.21030910415022
H         3.83166053473618    1.49398439079403   -1.21134026858271
H         3.64149781197977    3.22704271047896   -1.77180014699055
H         4.18942351162470    1.82668367045116   -2.84193637752278
H         2.17282171156448    3.46290738782175   -3.94040125719859
H         0.52334315862454    3.30471262358762   -3.32440124442368
H         1.70186622266099    1.27204527767609   -5.31773571402335
H         0.23316132520476    1.08519296060072   -4.36438302206778
H         1.20607015003180   -1.09618382323060   -4.95291730210595
H         2.25544781867463   -2.32535932757462   -1.82637339026899
H         0.92674276986700   -1.16958248335534   -1.56862610998823
H         5.88976812149282   -0.57310231257432   -0.02962995233361
