32
 energy: -49.287507719229 gnorm: 0.137360766907 xtb: 6.4.1 (79825abcba525fcdf90b791dcacef51065a7a4e7)
C         2.47203961761960   -0.79702530555257    1.53232959778985
C         2.48373881295617    0.15126494557132    0.33263775236763
O         1.21945795004790    0.76759555628678    0.04610161304175
C         0.93148070378128    1.48550446303364   -1.06813633655108
N        -0.21851559393554    2.01069231465336   -1.30603510431345
C         1.97908560679103    1.93163131468972   -2.15045224689893
C         3.32795586156469    2.38088569082226   -1.52383473119333
C         1.46197577310032    2.94443737496663   -3.20012728683681
C         1.61258861610629    1.85497250068708   -4.27733671855768
N         2.06426440162192    0.92362409717812   -3.25520374511732
C         1.83349225435577   -0.46288272543946   -3.22626855263281
N         1.55504159750447   -1.13483856636981   -4.29877563402171
C         1.76780634755890   -1.14841744917284   -1.87457250864955
C         2.81616437643463   -0.65545627958894   -0.93237202664401
N         4.03192864470420   -1.05840164703390   -1.15390918008160
O         5.01847923993278   -0.57467525629573   -0.30535292410828
H         3.49785099334976   -1.12408656515193    1.73607481437078
H         2.08492921936180   -1.79188704848025    1.29423007842404
H         1.91730214637578   -0.24063092410537    2.29579637393894
H         3.20485373749451    0.94618800172520    0.55435927010807
H        -1.04077841807097    1.82514238398817   -0.71512931878664
H         3.16479459881375    2.81436780609631   -0.52855573816984
H         3.88400176453039    3.05914326998743   -2.18205844921063
H         3.87766152857174    1.43626866064870   -1.49594708448404
H         2.07392937757783    3.84870134634711   -3.22110315240051
H         0.40792401629569    3.19362042289832   -3.02074688807707
H         2.41304854226422    2.09627945075134   -4.99017389079497
H         0.68602791940779    1.56769340614872   -4.77549700064499
H         1.45969231888043   -0.75381464719233   -5.23730485469114
H         1.97311973750404   -2.18720201156432   -2.16986580917133
H         0.77209102208771   -0.97477686352098   -1.45542020859347
H         5.86906550244699   -0.85027708378238   -0.69809961769508
