32
 energy: -49.282551731333 gnorm: 0.118012582613 xtb: 6.4.1 (79825abcba525fcdf90b791dcacef51065a7a4e7)
C         2.03928491093431   -0.46992283752986    1.59477401065149
C         2.28980577117459    0.22020144760782    0.25327500379254
O         1.07449524217842    0.86991187662831   -0.14830834107812
C         1.12272157827595    1.80751088578588   -1.12730408134650
N         0.27792539498724    2.77666010771146   -1.08282027938966
C         2.10946694908367    1.80077388966980   -2.34967928861377
C         3.54105731312582    2.31143701048064   -2.02765104732792
C         1.43239555692206    2.69502557870581   -3.41592722659120
C         1.45607633377530    1.45815238988632   -4.33221432077909
N         1.97406423261958    0.62028341912999   -3.26177478124987
C         1.87026833277095   -0.78083371888140   -3.21086934761903
N         1.51937603454035   -1.63280623431104   -4.12210383080774
C         2.00012154061445   -1.36263375352578   -1.81587774779362
C         2.89722678379711   -0.64984043176256   -0.85831057101491
N         4.15433230344111   -0.96965152136073   -0.94157536426374
O         4.89011788103995   -0.27196463571944    0.00667229219592
H         2.99120860189207   -0.89928946504611    1.92682182372322
H         1.33322628840487   -1.30326207440979    1.53713138786803
H         1.55810219032883    0.18836535679736    2.32642264996364
H         2.97347644057758    1.01989882617181    0.56011105993435
H        -0.25872490233645    2.69996031439700   -0.20769846376488
H         4.06524709487410    1.57089591052021   -1.40964411115575
H         3.47263416587919    3.14927025298440   -1.32349723620894
H         4.12905632054221    2.62331680437672   -2.89497078367602
H         1.99740287196252    3.55844652746633   -3.77354648723633
H         0.38483070511696    2.93763837309349   -3.19447396797655
H         2.10931355073965    1.69380374779934   -5.18359645944884
H         0.45878951429129    1.18920082805920   -4.68191666402205
H         1.23132993469530   -1.19143960077163   -4.99235250686582
H         2.11369241364249   -2.45258243961049   -1.72905263921558
H         0.98908281858289   -1.30328017456255   -1.40167178308556
H         5.84736445466895   -0.45639376813256   -0.05136403524733
