32
 energy: -49.289707388545 gnorm: 0.113800011373 xtb: 6.4.1 (79825abcba525fcdf90b791dcacef51065a7a4e7)
C         2.21858522178493   -0.94349119443865    1.32634597245051
C         2.50235837806278   -0.00294161188402    0.15438560806443
O         1.27976762385654    0.71543264271690   -0.06828626367974
C         0.86771912940862    1.69618553590523   -0.90982659769847
N        -0.27901595221867    2.25624926447998   -0.74784858329690
C         1.80537600140467    2.07863955623837   -2.11084345022120
C         3.17972337861877    2.52307441301786   -1.53850006776041
C         1.28589504476914    3.04605622436187   -3.20136668544217
C         1.61716873651090    1.97521408784775   -4.25661687562134
N         1.88464055225775    1.03329083828038   -3.18078412473335
C         1.88955957225433   -0.36608117092182   -3.31579517908577
N         1.74865411768315   -1.06018834248879   -4.40101025319326
C         2.02835799211636   -1.25046182567154   -2.09106640914736
C         3.00694878700418   -0.80741818944441   -1.05382033254003
N         4.22005281941546   -1.26799708980810   -1.12979480593233
O         5.23034242489779   -0.86435939251050   -0.26740710990457
H         2.97081809467477   -0.89907336670894    2.12192307360963
H         2.13049246845895   -2.00228349166491    1.06654937536290
H         1.33066751006128   -0.52971033474183    1.81683290331286
H         3.30934580481701    0.67040628684217    0.46493953005320
H        -0.67734673607161    2.05911613343595    0.18069097075711
H         2.84196564747563    3.10192237745588   -0.66903852108309
H         3.80970049020137    3.09300390980737   -2.23188889515001
H         3.78090174174460    1.68031089999027   -1.18694693000249
H         1.89884591698676    3.93996003900088   -3.33496209419220
H         0.20708525298371    3.21155034082792   -3.08272537681024
H         2.42971563116380    2.19139210167583   -4.96382022807807
H         0.76450408342088    1.72499537611139   -4.88872545784531
H         1.51245723286225   -0.51960301793200   -5.22991697840829
H         2.17093469932510   -2.27135458067503   -2.47300220645930
H         1.07855654731721   -1.29362750655168   -1.54949216276393
H         5.95700879780256   -1.48857409696667   -0.45718410615627
