32
 energy: -49.290691986537 gnorm: 0.119098695770 xtb: 6.4.1 (79825abcba525fcdf90b791dcacef51065a7a4e7)
C         2.09329332207261   -0.35279342688552    1.67758416265055
C         2.46785686915111    0.28756948491992    0.34031482181560
O         1.30235042754983    1.07188338269854    0.04566432004750
C         1.09350557303060    1.69187001899010   -1.14254891515036
N        -0.09641832383568    2.07778889943150   -1.44264444681997
C         2.07559141174037    1.93944382859239   -2.34343505781855
C         3.49234352116392    2.46973437165942   -1.98912534976021
C         1.53833044454212    2.79782840210616   -3.51370125203312
C         1.64954919854185    1.54766252259828   -4.40516844865299
N         2.14534688772952    0.77169262070497   -3.27901035579489
C         1.79446108103915   -0.57699180642087   -3.09347421696659
N         1.30226929336653   -1.39477224280229   -3.97000902224210
C         1.82806400875319   -1.27301823421126   -1.74596809790655
C         2.80770814535337   -0.73402621997285   -0.75622470835503
N         4.05239365796209   -1.09368820877496   -0.86076013457801
O         5.00011596687273   -0.67878865890011    0.06498378321965
H         2.93669146023449   -0.93581463367770    2.06428302735266
H         1.14235663875656   -0.86800566496206    1.51457647359328
H         1.81781636140081    0.36881954189486    2.45448637871250
H         3.37427208062092    0.90126512246009    0.39378406816297
H        -0.82264022636754    1.90074483698411   -0.73485088180050
H         3.91497743873645    2.85109528875519   -2.92776960854788
H         4.17092487137269    1.63947708654127   -1.75960618692705
H         3.41214754050705    3.15752893141438   -1.14309780010604
H         2.17005975282058    3.65476107816463   -3.75702202846064
H         0.52125066532383    3.13165179941251   -3.26996924670395
H         2.38039154726643    1.52348296707545   -5.22516039099918
H         0.71373248915411    1.16669476509925   -4.81543461526911
H         1.20580519958812   -1.12067557199445   -4.94503389829305
H         2.08956607273463   -2.32867294165817   -1.90607710417466
H         0.78304292431373   -1.14529485158257   -1.44779635632939
H         5.81546600039666   -0.83956102988723   -0.44790986168021
