32
 energy: -49.290410449016 gnorm: 0.127347126758 xtb: 6.4.1 (79825abcba525fcdf90b791dcacef51065a7a4e7)
C         2.28831070072533   -0.90400232967815    1.47737796717209
C         2.54679453921768    0.05665478301652    0.31592378306160
O         1.39192574584957    0.90089319487507    0.19797435504206
C         1.02131437031478    1.53440120480194   -0.94271189917473
N        -0.19486818907500    1.93261454157169   -1.07399680720181
C         1.95004540929081    1.95658941901421   -2.13733682615320
C         3.35839624135957    2.39452592020927   -1.64877818889382
C         1.24114770086496    2.88303365118132   -3.15427414860053
C         1.71535141163787    1.92344889430320   -4.26076682153506
N         2.04436399544353    0.94379080882677   -3.23695168365939
C         1.86359696648526   -0.44699717450415   -3.33455430723692
N         1.64541639531361   -1.21211506489188   -4.35745347885165
C         1.73652067849306   -1.06822610104396   -1.95641028403271
C         2.82325206139788   -0.63004202339916   -1.03076637322349
N         4.06210899923348   -0.89370487724716   -1.32272840815079
O         4.98596629810436   -0.65743739309124   -0.31377529334023
H         3.19127412214654   -1.46206031352341    1.74940463110601
H         1.42356614866746   -1.52577345187238    1.22855420559552
H         1.95600150652835   -0.36947673650652    2.37406234686624
H         3.43021458483995    0.66535340942514    0.53980957385125
H        -0.73081477039337    1.70075924794310   -0.22622385779541
H         3.20715549121196    2.73309869750356   -0.61552926781458
H         3.75690898941260    3.09242334633670   -2.39483826302707
H         4.05666609369280    1.55356639993835   -1.62729171525173
H         1.51964259544389    3.93892368899838   -3.14173018579341
H         0.15231524341457    2.76671612499378   -3.07547858168340
H         2.60525282932469    2.28952541361854   -4.79101716117299
H         1.13016097281716    1.61434517615054   -5.12749325382539
H         1.63655003308359   -0.66871229599844   -5.21753640477005
H         1.63903980356201   -2.16284096895772   -1.98362885672936
H         0.86311639359176   -0.71795718395813   -1.39805075555486
H         5.83857325695258   -0.93208110769350   -0.70279396511857
