32
 energy: -49.290208886721 gnorm: 0.131716545996 xtb: 6.4.1 (79825abcba525fcdf90b791dcacef51065a7a4e7)
C         2.07358192860966   -0.90811436925175    1.30503216241684
C         2.58004106974329    0.12055192534634    0.29310497980894
O         1.44834689726623    0.98880123660193    0.13253123586602
C         0.97164029826160    1.63495884356836   -0.96066659208392
N        -0.24471624977544    2.05252159714976   -0.92860893790746
C         1.90714157620339    2.01280309564486   -2.16481941956552
C         3.25584421476656    2.53209021518890   -1.59449312218002
C         1.34238514760197    2.92273055160584   -3.28199379568815
C         1.54553645321205    1.72061216755219   -4.22201456303866
N         2.14934322679651    0.92426241385099   -3.16493312543419
C         1.87744172864091   -0.45468013785435   -3.19781568401029
N         1.81720442548853   -1.19776871114162   -4.25777876484548
C         1.76801294431966   -1.15418661284725   -1.85614852336630
C         2.88224852315374   -0.68979266303803   -0.97715797048771
N         4.07530951531689   -1.15231165799878   -1.20564888885849
O         5.14331092931926   -0.63819908471942   -0.48288871939238
H         2.92907394166842   -1.48753501621247    1.66996406773636
H         1.29978657132768   -1.52534191176797    0.83966494868366
H         1.57828957979834   -0.29616251717804    2.06686568367253
H         3.41894190969178    0.73589230619131    0.63759218834163
H        -0.73409443747852    1.69703322374496   -0.09563139152988
H         3.74483952270614    1.80836034350095   -0.92950644349751
H         3.06476221966663    3.52076991033144   -1.16035144637334
H         3.95664005272938    2.55815211087129   -2.43321914856250
H         2.06040283586159    3.70606277995740   -3.53390995647670
H         0.31784848405152    3.29886637069074   -3.16307746942675
H         2.12079593743821    1.97762750057105   -5.12208212856443
H         0.59363761545179    1.41806096254474   -4.65968915692713
H         1.96211494274825   -0.57888646391554   -5.05219272192548
H         1.96796546735099   -2.22148764925511   -2.02735771071416
H         0.84915077470141   -0.90799425418709   -1.31543569579034
H         5.87309858091173   -1.22521160790028   -0.75952856624192
