32
 energy: -49.297492074682 gnorm: 0.122422159258 xtb: 6.4.1 (79825abcba525fcdf90b791dcacef51065a7a4e7)
C         0.92919650636697   -1.16006259965816    0.43375678410058
C         1.83548873750586    0.03026986955007    0.11690540370328
O         1.20089133368751    0.95129076098912   -0.78274961014505
C         1.93647091621898    1.97579827756487   -1.28190626309049
N         2.47891148247403    2.98371018413073   -0.69472535362742
C         2.05616939843718    1.97668004636851   -2.84829844941643
C         3.45872236645544    2.44859222854467   -3.32166307558064
C         0.83064629542846    2.54182877484896   -3.60572596466653
C         0.50870760561814    1.09665298948650   -4.02741368059432
N         1.71126642058465    0.61410563235079   -3.36622005224688
C         2.06800149781889   -0.61199494386850   -2.77807750143001
N         1.48842263871752   -1.74282157121413   -3.03234182962813
C         3.33533777798130   -0.74045819405939   -1.95423854447188
C         3.17995027000181   -0.35480545907734   -0.52003713239431
N         4.24835885629227   -0.41042332330535    0.21816078599521
O         4.10162432464210   -0.37215893349748    1.59813391057721
H         0.03448358982144   -0.89433782390350    1.00790771898621
H         1.52010352930396   -1.88858054414193    0.99623898396245
H         0.57886365638443   -1.76247051441140   -0.41156060024170
H         2.15989090840027    0.46096164066787    1.07102157408140
H         2.61377645997464    3.00949878792439    0.32550058477832
H         4.29090548912572    2.14882152739134   -2.67149586874616
H         3.43781788668167    3.53929573197009   -3.43305307965666
H         3.59039167346230    2.02327434978742   -4.32017360138216
H         1.13073851481422    3.21695250771297   -4.40994803511640
H         0.03262235237045    2.93087881487109   -2.95989899080925
H         0.56089828434679    0.89562734278900   -5.10628660751195
H        -0.42050057778716    0.72978872566241   -3.59016040156045
H         0.65770159561451   -1.65737916323689   -3.61347001019980
H         4.10694827288139   -0.14344969993534   -2.46081842621724
H         3.58062374655031   -1.80500066723554   -2.01647059217867
H         5.02215415431814   -0.49881510818918    1.89861081274985
