32
 energy: -49.289293341502 gnorm: 0.119708018073 xtb: 6.4.1 (79825abcba525fcdf90b791dcacef51065a7a4e7)
C         2.31461474436167   -1.00402979680626    1.20556268370788
C         2.49429449373175    0.01461449972078    0.07918317267263
O         1.21071499116419    0.64200496538728   -0.05929913401305
C         0.86363857430173    1.63313097595459   -0.91781967399442
N        -0.28590320479768    2.20984536241620   -0.94721033936567
C         1.88045278821696    2.01985842058403   -2.05115267824924
C         3.25217417132228    2.52467840583595   -1.52440110477638
C         1.32012185246880    3.00810579426978   -3.10205361390334
C         1.68735049173249    1.96432763967206   -4.17241261561563
N         2.00721208620437    0.99484383981928   -3.13608910596192
C         1.77142617667419   -0.38559354602498   -3.25974929363447
N         1.42517677793737   -0.97865362760568   -4.35871333831229
C         2.06157162943102   -1.32785661940082   -2.10679195567173
C         3.03301767414950   -0.82240934459147   -1.09159607925336
N         4.27609564639696   -1.19536042363341   -1.16364528348383
O         5.01593981605004   -0.67650749072538   -0.10972723093678
H         3.32022377014813   -1.24623576930332    1.56730419097343
H         1.64701602047456   -1.84607641499408    1.00168730594736
H         1.85772574419024   -0.56388697571470    2.09871251924746
H         3.17539309626492    0.77875136505333    0.47067950944518
H        -0.88923417449498    1.82699010009542   -0.20617850627739
H         3.11869321276161    3.57900764763112   -1.24929874823213
H         3.89872806522399    2.71059062945805   -2.39035928415041
H         3.74527571646940    1.92861181808709   -0.75186576304623
H         1.82958880438958    3.95867172308085   -3.27377540433293
H         0.28524213384731    3.33914803856991   -2.94479704597759
H         2.59447392162946    2.17800512945982   -4.75428114953065
H         0.88799661011739    1.59329121984120   -4.81473109045288
H         1.33527016978058   -0.35663621756558   -5.15878768812247
H         2.57647156015704   -2.16369834392487   -2.60143502672227
H         1.11177221666107   -1.59899747241597   -1.63599217938917
H         5.85452078055946   -1.17680547221109   -0.09604443269394
