32
 energy: -49.284475404198 gnorm: 0.117577928400 xtb: 6.4.1 (79825abcba525fcdf90b791dcacef51065a7a4e7)
C         1.78691837801851   -1.08051588715789    1.14815332776914
C         2.24829474640697   -0.10271228023160    0.06663413057748
O         1.04364799132764    0.52663386800060   -0.39501739641540
C         1.15072189616231    1.76055804912760   -0.94802431582569
N         0.28384690354832    2.63547033918271   -0.57658676279056
C         2.07781201045727    2.03753910661399   -2.18564235389657
C         3.47976217586668    2.52882975569172   -1.73056079455248
C         1.37846421200650    2.91052419069564   -3.25513106534624
C         1.25620025542234    1.63253638970795   -4.10471732387253
N         1.93679776728093    0.84853230175200   -3.08574660633056
C         1.75350044183845   -0.54407432715191   -3.14527038359966
N         1.07064728263162   -1.09254818253678   -4.10037188100119
C         2.54564683613791   -1.47156773439483   -2.24326441446944
C         3.07584686153722   -0.83724769954306   -0.99974800580709
N         4.37461433230772   -0.86867081573353   -0.95800963289110
O         5.02099203329094   -0.24480507092472    0.10043659626784
H         2.72182789661690   -1.58382261267981    1.41907157848932
H         1.12248714036951   -1.78196771725716    0.63552071309588
H         1.36386766979144   -0.67339117133387    2.07306816299713
H         2.89575594520707    0.70810526897091    0.41939289428734
H        -0.35162627770650    2.36595279528406    0.18712045741272
H         3.38953109038130    3.56950449756976   -1.39297664782025
H         4.14608455747404    2.35917767243305   -2.58479233053443
H         3.94618215357999    2.00774476260729   -0.89021669796997
H         2.06024529708562    3.61960161668389   -3.72947723728814
H         0.44065312282521    3.32083420193020   -2.85833050243310
H         1.88410301126143    1.69167226574342   -5.00435228265757
H         0.25885616545690    1.44278893903819   -4.50284838778769
H         0.61386520762738   -0.41085310171208   -4.70182825926654
H         3.46034131231118   -1.70717996141100   -2.80562194190124
H         2.01110536204957   -2.40858164821100   -2.06007312457070
H         5.95815220405295   -0.19234392301060   -0.16915933351857
