32
 energy: -49.293237525993 gnorm: 0.108968244995 xtb: 6.4.1 (79825abcba525fcdf90b791dcacef51065a7a4e7)
C         2.34154532670324   -0.78179175728804    1.39133574256003
C         2.35496554656592    0.09202674174106    0.13638038773410
O         1.05141389274344    0.62657197088562   -0.13818649905261
C         0.86160022769361    1.66280749509555   -0.99260854939330
N        -0.19862009261214    2.39058550965737   -1.02698348537682
C         1.92949405798638    1.97816903294298   -2.10078850982422
C         3.36518248527061    2.37244496534100   -1.65663175697771
C         1.44662844528585    2.97176069990728   -3.18458406435750
C         1.59163165787957    1.82039062610757   -4.19617643568707
N         2.00883941533239    0.90634990189258   -3.14420498159748
C         1.80065066395331   -0.48171818763457   -3.22432137507525
N         1.39900156591781   -1.11020495638316   -4.28404457170420
C         2.00229137161937   -1.29318472943123   -1.95853396099392
C         2.98813427455707   -0.77227943059055   -0.96526739533377
N         4.22268796859784   -1.17357675941556   -1.03132844625283
O         5.15725588878417   -0.62776507537272   -0.16184962318543
H         3.38620443991851   -1.10234682254699    1.47320119393588
H         1.65163796063883   -1.62783438438280    1.32399012029388
H         1.97210393637926   -0.13575139954520    2.19528524781980
H         2.90869796843347    1.02102814993520    0.31359954469634
H        -0.93643850502443    2.13464999680097   -0.35628564807657
H         3.91478240791027    1.42260303460231   -1.62749660349028
H         3.44752220354342    2.89251574361764   -0.69474537472803
H         3.81222076121924    3.05082000205488   -2.38821870284824
H         2.08882917357091    3.84150970203505   -3.33864714091804
H         0.38614996461658    3.14820660652543   -2.96199280786210
H         2.37105270789412    1.91158339378741   -4.96512941488051
H         0.73577927945706    1.43052834716038   -4.74820160459453
H         1.26235327380448   -0.51444128257079   -5.09737151083545
H         2.36781750156492   -2.30484793264099   -2.18514662216641
H         0.98650377444292   -1.35488218923002   -1.55646717041892
H         6.02282249170902   -0.77573447148766   -0.58917015437613
