32
 energy: -49.291254654500 gnorm: 0.118891682588 xtb: 6.4.1 (79825abcba525fcdf90b791dcacef51065a7a4e7)
C         2.10301502135924   -0.34047022786388    1.60063780985033
C         2.39960431945913    0.34815410356062    0.26779005634947
O         1.15049245337667    0.97637691937467   -0.05690693392493
C         1.00397627250388    1.77894191262526   -1.14054560907478
N         0.03983503721062    2.63061036707052   -1.14200846638354
C         1.98156508145913    1.91132450971958   -2.36312809884618
C         3.46157413379518    2.30716958998302   -2.10465205269093
C         1.33180209016647    2.77960997542366   -3.46715926609490
C         1.39091920161254    1.55906535989273   -4.40352143598534
N         1.76556209716282    0.73487972861872   -3.26486545823249
C         1.91263448541678   -0.65871660800895   -3.15193545895947
N         1.77464793345432   -1.43587063455390   -4.17971082858330
C         2.00623440370837   -1.29284469951750   -1.77698988792398
C         2.91021183160298   -0.66753164692038   -0.76623995391702
N         4.06807309728266   -1.25801612738756   -0.75168629391035
O         5.02780065144232   -0.73564844441685    0.10468748353103
H         2.96417774223221   -0.86165074132381    2.03369646903904
H         1.46062369936438   -1.19884357519484    1.38424852800919
H         1.69566480202566    0.33189870547904    2.36364220379285
H         3.21960590614089    1.03712615055711    0.50013625664060
H        -0.59664947699516    2.54535706927980   -0.33743781849685
H         4.12520468574306    1.64762288971866   -1.53045587317991
H         3.52852755407154    3.29927945141234   -1.64235980665629
H         4.00642497612997    2.27166243690553   -3.05182266802507
H         1.87013652417372    3.70465179084381   -3.68421735545797
H         0.33427111245320    3.07325790426844   -3.11502651168282
H         2.25765860727508    1.54714992067645   -5.07859387878120
H         0.47624946497385    1.20576771579425   -4.88077160358938
H         1.58767521613734   -0.86046062556586   -4.99766703183984
H         2.46259160519470   -2.27497296979449   -1.96563575527549
H         1.00536395719508   -1.50088115066536   -1.38677469284164
H         5.88716659086866   -1.16965951179318   -0.05910475790917
