32
 energy: -49.287693541269 gnorm: 0.119638241483 xtb: 6.4.1 (79825abcba525fcdf90b791dcacef51065a7a4e7)
C         1.98095097278787   -1.35900927501467    0.99180288697699
C         2.33519055530929   -0.08575445290464    0.22239512673384
O         1.13209955233612    0.67540081847998    0.03912706057915
C         0.98784191324225    1.64967270967803   -0.89352203461238
N        -0.02816356384019    2.43111537723528   -0.78402395341547
C         1.95061086984537    1.98837929935240   -2.08778612663840
C         3.33609045754801    2.46123921397087   -1.56742107141805
C         1.47864376397615    3.01658483551357   -3.14373916430360
C         1.47385200012126    1.86782214304454   -4.16859008913234
N         1.98303269412634    0.94704090809166   -3.16406351927299
C         1.90955542249453   -0.45316711793071   -3.26659538248600
N         1.75665152941987   -1.10508411788229   -4.37607972057202
C         1.96648939517150   -1.21504556252503   -1.95600220690350
C         3.00187715557330   -0.64066252646597   -1.04613223444130
N         4.26625640935040   -0.91181947046860   -1.17783440305935
O         5.13329803537759   -0.29657195488320   -0.28506884883391
H         2.73516284254545   -2.14045343038940    0.84592741899566
H         1.02885516097680   -1.76801031612963    0.64176367537153
H         2.07724737957098   -1.17358323947716    2.06722563146539
H         2.99563091668630    0.42303441133169    0.93374754461764
H        -0.65281903534412    2.28410288922665    0.02090303311208
H         4.04583600492937    2.57368074588798   -2.39731671423469
H         3.76997608498716    1.87397076619800   -0.74929034630169
H         3.16771290827521    3.42856134156355   -1.08659649396073
H         2.23594987296089    3.76059118405230   -3.39979100227408
H         0.44942699410266    3.35406024438890   -2.96452472700548
H         2.15699345801045    1.82290716586497   -5.02789351073296
H         0.51314817132958    1.57603400579146   -4.59416676960546
H         1.43927041670527   -0.50557166844391   -5.13434212541917
H         2.11730759326749   -2.26534490510297   -2.24331780745438
H         0.98050114203926   -1.11753263504329   -1.49166706825602
H         5.96324836465651   -0.81119397992644   -0.29213604361979
