32
 energy: -49.289197554934 gnorm: 0.126376522796 xtb: 6.4.1 (79825abcba525fcdf90b791dcacef51065a7a4e7)
C         2.04611022075284   -1.20642350147325    1.17217445996987
C         2.28989244691000   -0.06877080849022    0.17971872823483
O         1.06194344127552    0.54715431590230   -0.23639419503927
C         0.95684271404967    1.61853581804203   -1.06158861672492
N        -0.08672270201348    2.37064334607465   -1.04692275135186
C         2.04270164650165    2.01880769408484   -2.12394719829696
C         3.51464981334122    2.33301792074780   -1.73849874651012
C         1.46049168007239    2.97785084548067   -3.18990413705906
C         1.51078875686675    1.87098258504983   -4.25869362117880
N         2.01787502241457    0.99316577461153   -3.21539219448158
C         1.70463503812392   -0.37613741153349   -3.15722236679460
N         0.99505123293401   -1.02006114203082   -4.02968092409653
C         2.35134876902858   -1.27093365763103   -2.11681103530230
C         3.09536728076190   -0.56590797543436   -1.03090944194361
N         4.38164312536389   -0.74223647931350   -0.96822654393976
O         5.06605569111866   -0.44066078736399    0.20136849577985
H         3.02738351488845   -1.65143575112985    1.37176649765549
H         1.41048667379395   -1.96794138570517    0.71133940204756
H         1.59045401702969   -0.82126321222479    2.09098829472270
H         2.91101644379654    0.71867970547190    0.62152921722303
H        -0.79694631082459    2.15317862914735   -0.33417728116532
H         3.82738899328519    1.88321334600093   -0.78719507931337
H         3.55785538364542    3.38239238596582   -1.42318086243342
H         4.14318232036042    2.03172383438737   -2.58077193895280
H         2.04958744529987    3.85164845561966   -3.47637306872474
H         0.46476259693931    3.34627712856225   -2.91047561938645
H         2.26565982871553    1.93946449956554   -5.05404377707340
H         0.52126505365596    1.55909756164419   -4.59451835250237
H         0.72944599581142   -0.41478129429369   -4.80311352525674
H         2.94413173687534   -1.95794418352671   -2.73733499010191
H         1.66719700952143   -1.93734122520443   -1.58283908524568
H         5.94937159125531   -0.85488123067154    0.15803528643655
