32
 energy: -49.289643050195 gnorm: 0.116066735829 xtb: 6.4.1 (79825abcba525fcdf90b791dcacef51065a7a4e7)
C         1.97586587661674   -1.01112647568451    1.23030614468440
C         2.44287497720532    0.01585510634767    0.19789965945058
O         1.24577516368362    0.74690270396679   -0.10688540891558
C         1.03265539548186    1.84130968931700   -0.87935136008518
N         0.22074486046100    2.75321350634772   -0.47420655243968
C         1.75137595683431    1.99122764439315   -2.26819199929502
C         3.22119951158370    2.40213290679380   -1.97714977721375
C         1.07511829431561    2.88934937072392   -3.33170003140042
C         1.28917299403288    1.71915963783307   -4.30885645670815
N         1.54442058034882    0.82739907816853   -3.18823677787071
C         1.94926354933395   -0.51635117704214   -3.27149316196012
N         2.15757911317389   -1.13462209215263   -4.39117015616642
C         2.12941211216803   -1.31645114931435   -1.99527169777962
C         3.06614292312232   -0.74963918163695   -0.97985719471799
N         4.34487952185301   -0.97705799345208   -1.03123649519296
O         5.12869014037984   -0.63922398389789    0.06367451155315
H         2.73955748931045   -1.69553693460866    1.61647658155600
H         1.08950684249955   -1.53186947518254    0.85682237373068
H         1.61475223164320   -0.44947580898013    2.09883096053677
H         3.11769325879765    0.75366227941518    0.64659856006336
H        -0.05398409068951    2.67974095804798    0.51515706822156
H         3.38961094986413    2.67682612028517   -0.92772619952368
H         3.50298459450717    3.25896788700283   -2.60077614252775
H         3.87355298535497    1.55300464854146   -2.19776599891462
H         1.55729832563567    3.83690307939744   -3.58122942559697
H         0.02582601522564    3.00124491969463   -3.02878134588627
H         2.15198478762056    1.86021192827740   -4.97426011958856
H         0.34452152540208    1.42262986587775   -4.76592469538693
H         1.96218140806506   -0.53756372037127   -5.19145064465265
H         2.54508725125815   -2.30488272017087   -2.23743341151286
H         1.25174462561951   -1.40911254455878   -1.34843140432460
H         5.92529776818156   -1.19831377144725   -0.01718474523042
