32
 energy: -49.286766776484 gnorm: 0.130340055573 xtb: 6.4.1 (79825abcba525fcdf90b791dcacef51065a7a4e7)
C         1.95132560735831   -0.58210992063537    1.45914337879094
C         2.39418189591008    0.26978600837309    0.26884784886433
O         1.24803448615599    1.09215623568057    0.00346924878939
C         0.94176252766581    1.87345891554551   -1.06218262856098
N        -0.06083703236166    2.67662807004170   -1.13017538214335
C         1.99496816100664    1.81788264935264   -2.22647731204203
C         3.51263038655964    2.13725342819446   -2.13355988787107
C         1.43250777122960    2.76100312340654   -3.31696275821441
C         1.59451128511462    1.61494090143056   -4.33199692005381
N         1.76737596718087    0.70875764505151   -3.20721855009201
C         1.81555818694140   -0.69293768415874   -3.11014702184500
N         1.87737609513693   -1.52362708176140   -4.10285268839827
C         1.84972037847245   -1.25241311586638   -1.70047511149854
C         2.91686106547379   -0.63507103359136   -0.85791559337495
N         4.14261508956568   -1.05955287839795   -0.94079304410714
O         5.00106042088533   -0.47576557759723   -0.01906367990091
H         2.83707023193429   -1.12121054355298    1.81354025025070
H         1.23532590114340   -1.31158772241803    1.06991042388995
H         1.49655654762536    0.11098793658154    2.17537682806640
H         3.21370752454207    0.93382023316163    0.56634764634699
H        -0.64619679696377    2.62288094810262   -0.28508380227213
H         4.04491532845457    1.63086030342894   -2.94924816350918
H         4.00686548141608    1.75615484463016   -1.23190896180745
H         3.60939043937734    3.22597329637849   -2.10943706573752
H         1.99488350871490    3.68218343747408   -3.48363878468513
H         0.36764538607910    2.95719445106847   -3.13565721683612
H         2.45323651108896    1.61923403081333   -5.01732496294470
H         0.69397138175940    1.36216814155753   -4.89265857100140
H         2.01908572852597   -0.97946105895337   -4.95073802600034
H         2.02119293892191   -2.29397953760685   -2.00733281000960
H         0.84035203521190   -1.16244511885244   -1.28771607134197
H         5.83171133937472   -0.95555313651481   -0.20216549175508
