32
 energy: -49.296762583084 gnorm: 0.115235948758 xtb: 6.4.1 (79825abcba525fcdf90b791dcacef51065a7a4e7)
C         2.08427696904566   -1.26301307732863    1.08087880646415
C         2.34990741748595   -0.03506232054548    0.20896757119117
O         1.10338198784524    0.60010823357110   -0.11213238022050
C         0.94833898082919    1.55329930588804   -1.06462318497957
N        -0.19822874407732    2.09796339877622   -1.27350845138906
C         2.07528575126927    2.01890239579442   -2.05513701436448
C         3.43869762575377    2.32799552224505   -1.37727313387839
C         1.59831607827803    3.06742573606015   -3.08862388270645
C         1.52692298184156    1.94803252668659   -4.14307158890345
N         2.09005070569285    1.02182488395218   -3.17291528927706
C         1.74022000347409   -0.33929854267318   -3.13476193556783
N         1.08768799991085   -0.91051271850532   -4.09769869380187
C         2.12027066972318   -1.25941095196427   -1.99007450780270
C         3.06072028522002   -0.62443372226544   -1.01942243922003
N         4.32729916589437   -0.84820540772274   -1.20712054644224
O         5.17833378906098   -0.37512581481153   -0.21754650710121
H         3.01613557747156   -1.65291066298735    1.50560173288009
H         1.68412995561533   -2.09396655194169    0.49292096668123
H         1.33368116242880   -1.00483305207621    1.83595423045573
H         2.92290238354043    0.65097974761760    0.84307550215479
H        -0.93699962536174    1.72236498273135   -0.66288745962920
H         4.25099618500633    2.06642614692701   -2.06782445259762
H         3.71568256216483    1.83588280639105   -0.43728204043305
H         3.50586186176432    3.40723672528004   -1.21608147418083
H         2.37828481898193    3.77830842866063   -3.36954217640201
H         0.67831252150230    3.54062648614780   -2.72124243310831
H         2.14976046500622    2.07470533246308   -5.03924648168983
H         0.55239316493146    1.74169040009769   -4.58683078893821
H         0.69783461578980   -0.38842292336493   -4.87907209532537
H         2.48615156750018   -2.20592227390124   -2.41277127451168
H         1.20654333707265   -1.50720731248795   -1.44145074480655
H         6.09905618431799   -0.52727761150351   -0.50533709588958
