32
 energy: -49.287795662432 gnorm: 0.120286180575 xtb: 6.4.1 (79825abcba525fcdf90b791dcacef51065a7a4e7)
C         1.94356779727845   -0.93959374746169    1.28762881427526
C         2.44599320062727    0.00180596117516    0.19218957511565
O         1.22758375486538    0.67940708878097   -0.14943542108058
C         1.08430162284248    1.72708430657453   -0.99896059867115
N         0.13850839498453    2.57177130650536   -0.78242269162598
C         2.01982471634094    1.99533760258870   -2.23214740624484
C         3.34431453762415    2.61490232059989   -1.70698433530285
C         1.36232821887725    2.97308859049623   -3.23549070528480
C         1.23743612847365    1.79559895018940   -4.21931905127703
N         1.77137340050679    0.89086003292556   -3.21307099183611
C         1.83064163190905   -0.51346407795127   -3.24231562570532
N         1.70149824954089   -1.17844027446222   -4.34705971617131
C         2.12842655031436   -1.32657933988671   -1.99671440945371
C         3.06793550225553   -0.79718386243067   -0.96382023431453
N         4.31456171184368   -1.16231872296559   -1.00992947479854
O         5.19879264100983   -0.72997131103353   -0.03088279832471
H         2.71842793677922   -1.45749709132872    1.86394301152209
H         1.21145659566160   -1.62061932297071    0.84433084378514
H         1.24542755411182   -0.42139101017724    1.95415414436566
H         3.24242280031191    0.61535636208464    0.62845284426301
H        -0.54690565493678    2.34379574814244   -0.04897241142856
H         3.97281086947665    1.87271039771635   -1.19781626090776
H         3.10313315892026    3.41206770700860   -0.99365569490860
H         3.76794494180931    3.09465074045386   -2.59334436865107
H         1.89174449038283    3.85961266614080   -3.59103818250351
H         0.40477771833792    3.36696215898170   -2.87044922417806
H         1.85963065462449    1.95086277159149   -5.11143400337305
H         0.24694393801793    1.44434687259046   -4.51044594996133
H         1.59219955946793   -0.63043474715545   -5.19726648870921
H         2.48560709546155   -2.29075988206577   -2.38556274282297
H         1.15162783955513   -1.52677115466964   -1.54607460496361
H         6.08269854863436   -1.04551879744470   -0.30077806051742
