32
 energy: -49.283099426723 gnorm: 0.128929879916 xtb: 6.4.1 (79825abcba525fcdf90b791dcacef51065a7a4e7)
C         2.39751619318143   -0.15368388927754    1.60979533003151
C         2.53321591843186    0.39684125233827    0.18952794266266
O         1.23123683541268    0.86001344470463   -0.19866590870725
C         0.92089264605719    1.70735595068522   -1.21135908550839
N        -0.19895356927714    2.33917997958017   -1.17070888367261
C         1.87104089866935    1.95305471633881   -2.43804704058664
C         3.23008568513943    2.60012346258820   -2.05304146540368
C         1.26273204302130    2.63498435910655   -3.68701809035416
C         1.87988300739969    1.48555953228824   -4.50429733188922
N         2.14432026195047    0.74497021787671   -3.28046029284818
C         1.79973733168626   -0.61089889351668   -3.14126348247238
N         1.54899674822788   -1.34117232358040   -4.18201356252776
C         1.98627912784782   -1.25564680020053   -1.78080144855386
C         2.94231762452946   -0.74559576994252   -0.75335543075890
N         4.07626298353316   -1.34350974934040   -0.53842936763418
O         4.88065327863517   -0.79815502460867    0.45296636117823
H         2.09353020584343    0.68217820742248    2.24987129088714
H         3.25223799640435   -0.68961293046176    2.03231921015128
H         1.51878237381001   -0.80756901617810    1.63103217350244
H         3.19113031483066    1.27144362240979    0.13217667260472
H        -0.66213958398127    2.00099471407477   -0.31583811429751
H         3.52469361055486    3.16590378739735   -2.94646601100943
H         3.96384855981865    1.84283258180650   -1.75207398738235
H         3.05776396681848    3.28183397077964   -1.21588474146326
H         1.36701581881192    3.70698648740747   -3.86745327756085
H         0.18723229788282    2.44796239059212   -3.57032313317369
H         2.87979608892334    1.59832734829572   -4.94538601871953
H         1.10790241762515    1.13871855981594   -5.19201455624811
H         1.55027394317562   -0.85487250351803   -5.07566823285237
H         2.30070186163819   -2.30481763825962   -1.87463095178285
H         1.01018633940914   -1.33883411797912   -1.29334740391975
H         5.51133420916698   -1.53873342350235    0.53950261146641
