32
 energy: -49.285289005535 gnorm: 0.127225869217 xtb: 6.4.1 (79825abcba525fcdf90b791dcacef51065a7a4e7)
C         2.08773569514651   -1.01367221546463    1.26818943407770
C         2.46149951893678    0.05497103468938    0.24010674527913
O         1.35753576529716    0.95582368711900    0.06661034930157
C         1.03189509170530    1.82879319243791   -0.91915468795248
N        -0.09999359486014    2.43937376267002   -0.94963351723700
C         1.99738206267165    1.94935814795544   -2.15252890072824
C         3.44024160171324    2.28235314180457   -1.68220915585172
C         1.29647709214758    2.87333479956730   -3.17722191704643
C         1.35194719099706    1.77128728801307   -4.25072667009679
N         1.85415137731936    0.89332593966284   -3.20518781150222
C         1.78301100778763   -0.51025795194297   -3.24241006250517
N         1.81387038648098   -1.22174594633646   -4.32507501172605
C         1.94210404764274   -1.27973369058098   -1.94473861461050
C         2.94874605545492   -0.69451208159174   -1.00986185466788
N         4.22042887970110   -0.89646335089643   -1.18752702237468
O         5.02987387344449   -0.44341257003903   -0.15463554175766
H         2.97447698452574   -1.59856640465942    1.53718540834434
H         1.25535388304502   -1.57176696983566    0.83004961764865
H         1.64546324048713   -0.65578248804631    2.20440517037101
H         3.34522449000514    0.61306238849185    0.56970354834455
H        -0.79710530556761    2.13238168751928   -0.25717000768230
H         3.93917052857422    1.41460110203681   -1.23144875253809
H         3.37495758670421    3.06648912736834   -0.91843719227930
H         3.98522545114235    2.70621009575913   -2.52990795684482
H         1.95307194669470    3.71056288075331   -3.42329685434718
H         0.31110845635075    3.22146620317224   -2.84084741194103
H         2.20729162482189    1.88907928517111   -4.93014769064042
H         0.38901039181675    1.48547198232471   -4.67530882120046
H         1.72867710792777   -0.86210545508368   -5.27297196405754
H         2.25231555503042   -2.28402646801120   -2.26659250356438
H         0.92201883537733   -1.33972906422520   -1.55343894710445
H         5.95249909387019   -0.72816321005039   -0.30086514886109
