32
 energy: -49.288066659013 gnorm: 0.126341317355 xtb: 6.4.1 (79825abcba525fcdf90b791dcacef51065a7a4e7)
C         2.00222467860864   -0.49265109960545    1.54888419278404
C         2.33606380869706    0.30748671355771    0.28912916373387
O         1.13353114300183    0.98842432402939   -0.09895802050720
C         1.02745142186366    1.88257413730096   -1.11340049949620
N        -0.05111115612773    2.56974116737249   -1.25273408176243
C         2.11490114770345    1.90441396094372   -2.24692997928215
C         3.58938997775352    2.28800366794549   -1.94250985423070
C         1.58255927071701    2.73403938515645   -3.43996400976034
C         1.49967024713983    1.44709997805146   -4.28074607189714
N         2.01233148870436    0.70551409820299   -3.13907819900506
C         1.75511096357831   -0.67326387967298   -3.04262559999833
N         1.57461026092593   -1.56378057141264   -3.96660091892791
C         1.87035626923808   -1.29968042777296   -1.66579026033592
C         2.88508716675722   -0.59687326913357   -0.82543892887026
N         4.09172678993617   -1.06259776391579   -0.95446592785311
O         5.07412945895551   -0.32806880960096   -0.30433268330549
H         2.96752372005554   -0.73337650520626    2.00825245949216
H         1.51540183463188   -1.42326918173737    1.24351680838543
H         1.30267382474844   -0.05264236573664    2.26805788859266
H         3.07945463732703    1.08003254218643    0.51631381557234
H        -0.60262259684428    2.25228654148845   -0.44355407240985
H         4.14232902184740    1.74299012500684   -1.16641239528923
H         3.51025434255062    3.29067920131889   -1.50563665905336
H         4.06452346418316    2.27896432277670   -2.92710207169626
H         2.25777391130997    3.50318892529023   -3.82090325745924
H         0.60293943084243    3.22161279178689   -3.35101586610763
H         2.20084958262530    1.33476327563976   -5.11909563108400
H         0.52948373262807    1.09510033906568   -4.63294212130957
H         1.27248439332322   -1.28534238261437   -4.89735327646103
H         2.10663501774019   -2.35226430571801   -1.87713034333612
H         0.87592616548023   -1.36815839285402   -1.21444974591919
H         5.92932685730736   -0.71486538553945   -0.57401609473504
