32
 energy: -49.290424364506 gnorm: 0.111387744683 xtb: 6.4.1 (79825abcba525fcdf90b791dcacef51065a7a4e7)
C         2.08853037118800   -0.57935165748292    1.54399009501011
C         2.38397055551537    0.33029342242546    0.35071194449253
O         1.24260069027883    1.16098516101857    0.09071470680004
C         1.07827243221941    1.75686463871314   -1.11666850184745
N        -0.03773386004777    2.35921441376070   -1.33257200838840
C         2.08985302874497    1.84324108664617   -2.31548324333076
C         3.59393682915547    2.09108408427704   -2.01509055667023
C         1.50044476796809    2.76963764986242   -3.40607194961201
C         1.55132114883939    1.60929627303156   -4.41652609877239
N         1.90449798608842    0.73643661918910   -3.30767136131720
C         1.80885849856667   -0.65931425447264   -3.16901060689350
N         1.49090237997921   -1.47648498822504   -4.12319443234733
C         1.92639120066808   -1.25697250108371   -1.77964190654026
C         2.83158903588454   -0.57763513672423   -0.80551427363670
N         4.08090632159150   -0.93469238761809   -0.84076879552487
O         4.94212923282206   -0.44849278994188    0.13351353923069
H         2.98721703735395   -1.13397962024994    1.83642857179695
H         1.30703611786676   -1.30000179448815    1.28664626524818
H         1.79225259920240    0.09891706942465    2.35167871591908
H         3.18789262624994    1.03667324633214    0.58694634220467
H        -0.68865002276915    2.54312826650330   -0.55655755627878
H         4.08860842505939    2.52214394417679   -2.89520193224960
H         4.05315949273327    1.14303697360930   -1.71045950065316
H         3.79692048396077    2.75686843431978   -1.17201036859614
H         1.98231138509911    3.73522577302639   -3.57359709801700
H         0.44553767895259    2.91492076606605   -3.13894186008307
H         2.37037856514380    1.63375624075115   -5.14840630357075
H         0.59620998690651    1.41994823479019   -4.90756342847455
H         1.18805433295561   -1.06045941531954   -5.00086954444290
H         2.16041329037455   -2.32770485926531   -1.86444145930183
H         0.85124426725318   -1.30671019891010   -1.58247711066259
H         5.81828337108002   -0.61676767158514   -0.26365243837196
