32
 energy: -49.284258512886 gnorm: 0.118379961457 xtb: 6.4.1 (79825abcba525fcdf90b791dcacef51065a7a4e7)
C         2.06167399203718   -0.94385242585215    1.27328904649545
C         2.37811366598014    0.02691316035516    0.13481115322986
O         1.10699867390097    0.58903037764764   -0.22388564395890
C         0.93681393392359    1.72693275516153   -0.94226274707089
N        -0.18792547698068    2.34839486636514   -1.00272515367472
C         1.95120149172883    1.98932650567113   -2.11276706563183
C         3.36927428715019    2.44466472169135   -1.67042484392360
C         1.40228480189983    3.02914941120847   -3.11897539352599
C         1.34432584494330    1.89330012268370   -4.15651346747998
N         1.93080637511354    0.96332045818022   -3.20396158500495
C         1.77141621953706   -0.43335549893260   -3.18433419987996
N         1.47358416546025   -1.13179808112955   -4.23447937344591
C         2.18246093433396   -1.27265151632045   -1.98935340289954
C         3.13236497583292   -0.70010033578208   -0.98951618186547
N         4.37942039003672   -1.04616716931425   -1.11041678670858
O         5.29414981706972   -0.72533069727244   -0.11660843352157
H         3.00569750738797   -1.35267215502566    1.65072273951959
H         1.40532841552515   -1.71509228528720    0.86013617248429
H         1.46531231741613   -0.51965783805694    2.08852005058667
H         3.11719755866412    0.77201874934121    0.45047314866884
H        -0.90330913109318    2.03716411202388   -0.33110306522912
H         3.21896070118095    3.41456970088614   -1.17869444957153
H         4.04832847267130    2.48448658908294   -2.53052861129980
H         3.81017971735769    1.67184909315755   -1.03511879511556
H         2.22851524735185    3.71956330057614   -3.30143758662407
H         0.47518663789658    3.53421151155622   -2.81781779771059
H         1.84379312139354    1.86711433397914   -5.13475102252918
H         0.27913170752660    1.68985720516801   -4.27131809353920
H         1.34376007822841   -0.59344046840464   -5.08795731920276
H         2.61883437322900   -2.21484393000429   -2.35029211811201
H         1.32638787420368   -1.50279125340024   -1.34789932755404
H         6.20764587374917   -0.71222968372543   -0.46165428340378
