32
 energy: -49.293947997353 gnorm: 0.125191641765 xtb: 6.4.1 (79825abcba525fcdf90b791dcacef51065a7a4e7)
C         0.96930732169998   -0.96269729870202    0.58871300136990
C         1.89038881618120    0.18058843592800    0.16074291161866
O         1.33676519400699    0.94119106612887   -0.92339592007601
C         2.11779479143713    1.93372166338855   -1.41809390229999
N         2.73663232666004    2.83226857157145   -0.73650522571367
C         2.03874336026979    1.99849938146705   -2.98572512131786
C         3.20300796965814    2.90101996594320   -3.47956159156319
C         0.66545050513514    2.34325372507144   -3.61039105001592
C         0.75972502050251    0.91464203758829   -4.17623472531460
N         2.00197140775021    0.58943879489051   -3.49268263735653
C         2.05479283485157   -0.58946130006553   -2.72855002905116
N         1.36322205579252   -1.66082994514060   -2.95926613227104
C         3.30266425465896   -0.74308634654263   -1.87968554474093
C         3.18844743863763   -0.38783713808977   -0.43380882869528
N         4.13981536634790   -0.70604043397337    0.39273344325467
O         3.90768974087358   -0.52601182890713    1.74957845985930
H         0.01571635593400   -0.52190044839813    0.90037397760622
H         1.44274934642593   -1.49569700559145    1.41820663617031
H         0.85444759218265   -1.65661929372364   -0.25120925213277
H         2.10434622626390    0.79685584868685    1.04137139175352
H         2.63244775251029    2.62718340340848    0.26688912865494
H         4.10984713456679    2.29474204752875   -3.35636082586799
H         3.30675283717655    3.77082239969275   -2.81989532899171
H         3.07749713293429    3.30234447370374   -4.48873998162835
H         0.62680701932515    3.09255523988607   -4.40391133014916
H        -0.16500694565952    2.41953993788662   -2.89637743081658
H         0.86963054638259    0.77975721005074   -5.26105214455241
H        -0.04162878956250    0.28999208700845   -3.78018903742166
H         0.72711340343523   -1.60585442030401   -3.75138435924616
H         4.03589671954694   -0.08320468934819   -2.36481585065556
H         3.67664138525957   -1.77099440147474   -1.90857897207647
H         4.59945117672583   -1.07341142788547    2.16853324996725
