32
 energy: -49.292808812560 gnorm: 0.115732108345 xtb: 6.4.1 (79825abcba525fcdf90b791dcacef51065a7a4e7)
C         1.93201630491319   -1.10926526511689    1.32084068218591
C         2.21775902138230   -0.06965675168033    0.23630527575875
O         1.00284432379073    0.59030694941660   -0.14944424005705
C         1.06477349040337    1.70686349099597   -0.91711382511953
N         0.17468575384343    2.62573512660610   -0.78173162523808
C         2.04688522161638    1.89352453809748   -2.12894183995645
C         3.48665108244735    2.26873743711392   -1.68148289160098
C         1.52749858268449    2.91109458978923   -3.17286956959694
C         1.38459595605383    1.73621449929819   -4.15736624999242
N         1.99308787527223    0.83687653120398   -3.18932416108394
C         1.82576467841138   -0.55830431718087   -3.23368110142685
N         1.54766843089250   -1.15918357771392   -4.34765482459852
C         2.03163937220572   -1.39624762465148   -1.98595464471224
C         2.89836212249291   -0.70104973303814   -0.98830811695337
N         4.18290807896500   -0.82453122545997   -1.14393729998416
O         5.00983822684841   -0.07914269343456   -0.31453782792720
H         2.88032637568037   -1.61810665381723    1.52713807519340
H         1.17498896170303   -1.80452148050643    0.94691003333979
H         1.72180775889822   -0.59331953958428    2.26413398964964
H         2.79369711579138    0.74664640284038    0.68687637375425
H        -0.45225459440496    2.38669290367679   -0.00101451634304
H         3.95739767377109    1.68341661683753   -0.88091697177609
H         3.58999030701080    3.31603263448741   -1.37330660417609
H         4.14091070340821    2.06071110846565   -2.53232057627387
H         2.31213325068248    3.61299177851575   -3.46323022127890
H         0.60426855535029    3.40415316297620   -2.84145715759297
H         2.04790822995369    2.03044247755598   -4.98232000322985
H         0.44649488619799    1.35079127516597   -4.55814423686682
H         1.61412356209722   -0.44244617496123   -5.06666736728830
H         2.48556366881083   -2.31798013762093   -2.37683441536235
H         1.07004070184687   -1.61884919999956   -1.51365680429685
H         5.94048489068178   -0.17675975054565   -0.59394974525201
