32
 energy: -49.291918315432 gnorm: 0.112680709574 xtb: 6.4.1 (79825abcba525fcdf90b791dcacef51065a7a4e7)
C         1.85674109425037   -1.11612733597011    1.26722163077309
C         2.36384135483448   -0.05185783059526    0.29314177448714
O         1.17083092473736    0.72121227310831    0.09449326583792
C         0.91771489220761    1.59408607206941   -0.91241981434159
N        -0.17946146498091    2.26515917531946   -0.94025046886907
C         2.02542390792949    1.87813242920539   -1.98955090341797
C         3.37043768302010    2.31220973694439   -1.34422553602301
C         1.59226833381933    2.93941707677040   -3.02928527321981
C         1.57152332250572    1.83749563605574   -4.10415125893032
N         2.03193271528423    0.88216051067270   -3.10839291096091
C         1.87835825726085   -0.50339128696698   -3.29047894742444
N         1.57117398269768   -1.17038963950703   -4.35822512347578
C         2.04182739748002   -1.29836029244920   -2.00881719538116
C         2.92970354957177   -0.62162527326098   -1.01709510716351
N         4.16242302416633   -0.67565285798146   -1.42576387566414
O         5.23941507704196   -0.15049990464806   -0.72460518447802
H         2.59130152109845   -1.92341859142493    1.36454568680321
H         0.91264345490986   -1.47998554855164    0.85179102838760
H         1.65143278704636   -0.75629958991929    2.28140227639581
H         3.18799961952048    0.49112402583453    0.76959082892540
H        -0.81949665292442    1.95070084864379   -0.19783178083529
H         3.33622524452586    3.36766494229371   -1.04430481205197
H         4.10332802495814    2.21048823073697   -2.15354830627641
H         3.67134328044931    1.75485468390798   -0.45312142765838
H         2.35412840609909    3.71469158222173   -3.13482772761532
H         0.60194775542873    3.37735362861914   -2.84825665522649
H         2.39852329565588    1.92589726489931   -4.82203577380088
H         0.66953240074135    1.56675904010743   -4.65398918685166
H         1.31997364068389   -0.58595393902380   -5.15222834896011
H         2.40548271918164   -2.27137909332063   -2.36855920716463
H         1.05766759350599   -1.57291748239152   -1.61723508103472
H         5.99312832573276   -0.23087905516117   -1.34036394709420
