32
 energy: -49.285590596415 gnorm: 0.126003004659 xtb: 6.4.1 (79825abcba525fcdf90b791dcacef51065a7a4e7)
C         2.13172631150889   -0.88315302708743    1.28932756838717
C         2.41087626045626    0.10574872793934    0.15671976371369
O         1.11612595014837    0.52914015385372   -0.29575546991134
C         0.91517164623832    1.69819482949867   -0.95361478308361
N        -0.23898455317097    2.26550663289858   -0.98508532394330
C         1.94861988980766    2.04730030626400   -2.08411160188637
C         3.44269836883329    2.35151330055337   -1.78559202737531
C         1.36221846733376    3.09586986331547   -3.05962769634744
C         1.31365706095581    1.94710537675354   -4.08333666018813
N         1.89999294426139    0.99686866735590   -3.15090054502718
C         1.84639486268640   -0.40290731156702   -3.27026819281294
N         1.47803730883269   -0.97934865230242   -4.37088572150513
C         2.28853929207849   -1.26356018052249   -2.10187630386842
C         3.08592148025118   -0.65121013975870   -0.99778569302800
N         4.31095768312151   -1.08335357121982   -0.95234578275566
O         5.17157103554116   -0.81265998530848    0.10282749788873
H         3.06814991037839   -1.01521784809756    1.84289769957109
H         1.75442285651520   -1.80959400264960    0.84700985875176
H         1.30920666775816   -0.49187050831809    1.89805518915820
H         2.94780054536279    0.97941959338033    0.54334796148979
H        -0.78715545781161    1.77864254040510   -0.26246051958500
H         3.79264331025047    1.46270803819436   -1.24460000777114
H         3.65246012879708    3.30130787733335   -1.27926296458344
H         4.02886884251651    2.50223759078394   -2.69605439945035
H         1.98422622785191    3.93696441187771   -3.37313500877036
H         0.37018821839042    3.43753689286342   -2.73646480525473
H         1.92617947412575    2.09291688786757   -4.98370173464671
H         0.35865693284314    1.61613576694290   -4.49277718436268
H         1.15240034159370   -0.37283681300449   -5.12002640800542
H         2.98902062909215   -1.93050224451953   -2.62431220260349
H         1.45723035684054   -1.84743800872511   -1.69530424568374
H         5.80301241662927   -1.55677635841907    0.06710736127882
