32
 energy: -49.286200958378 gnorm: 0.116914311662 xtb: 6.4.1 (79825abcba525fcdf90b791dcacef51065a7a4e7)
C         2.25652831277723   -0.61076602520201    1.45593620392970
C         2.48982610522837    0.10366028451992    0.12408823563462
O         1.23852740958206    0.80467682003961    0.06752064073688
C         0.93369766217042    1.67842177812263   -0.92419450188401
N        -0.20773887725848    2.26775808004836   -0.99286010785629
C         1.97906925659239    1.89674719911796   -2.07634259215273
C         3.37354777872185    2.40676696024519   -1.61891555021269
C         1.36638578268869    2.88535373354140   -3.09726007712709
C         1.57735027102585    1.83261298897488   -4.20054109898949
N         1.97366640441104    0.87929979806532   -3.17569761247830
C         1.86966022679726   -0.51780729621476   -3.29303771739344
N         1.66068072576203   -1.10528757885645   -4.42905064268881
C         1.91027147389903   -1.38324411840673   -2.04775680982000
C         2.85294479968973   -0.86560761792556   -1.01179036046391
N         4.09170743164384   -1.24153956246748   -1.12870382326236
O         5.02503534418667   -0.63726314638960   -0.29739759726703
H         3.08683987271368   -0.95594565764346    2.08219804699019
H         1.70612045743418   -1.52149225591886    1.20310293296560
H         1.68984100069872    0.12681256860022    2.03475673046384
H         3.29961004459732    0.81631111583905    0.31760466160414
H        -0.77746558548776    1.94525430446540   -0.19843114036542
H         4.15095659886612    1.66677342902795   -1.38836464470066
H         3.08644725864223    3.05787918379944   -0.78458645909172
H         3.72740596785775    2.90224558075889   -2.52695778396581
H         1.92570127487341    3.80785273304164   -3.26691359551903
H         0.33795803723982    3.10905369153311   -2.78486715653260
H         2.33917471646811    2.13481590168644   -4.93225066372757
H         0.70601828153196    1.61356845336041   -4.81860883511109
H         1.84315954361213   -0.39176991048892   -5.13097787993819
H         2.15553512170923   -2.40924623866461   -2.35693390895291
H         0.91503661322858   -1.45633372264533   -1.59892031257922
H         5.88229038807061   -0.90914239703357   -0.67805332909611
