32
 energy: -49.286923706936 gnorm: 0.126830189975 xtb: 6.4.1 (79825abcba525fcdf90b791dcacef51065a7a4e7)
C         2.01972406986366   -1.07416803971220    1.30505154092283
C         2.24047193422985   -0.06351388854846    0.17877431628355
O         1.03324434079399    0.60735398859611   -0.21226320731297
C         1.14382247657314    1.80335648632522   -0.84250193602487
N         0.49691691521581    2.84648728513578   -0.45740330740951
C         1.93523340583704    1.95550819811053   -2.19099427488774
C         3.42982113106718    2.34473282461835   -2.02175562370100
C         1.17300507192496    2.88906264251465   -3.16180861408660
C         1.02582711983076    1.71652190000511   -4.14846203000030
N         1.62583221841844    0.84631937349350   -3.14900311064753
C         2.04761901542001   -0.48022856803832   -3.34613421926360
N         2.21578077988276   -1.03880861857863   -4.50330353499353
C         2.20003783633327   -1.37960258061022   -2.13400815005635
C         2.94341428213340   -0.71508022178386   -1.02242884547835
N         4.22049374177785   -0.95649345801523   -1.00470422413955
O         4.88992742504818   -0.47311671714782    0.11132735969812
H         2.85946452224902   -1.65776871462675    1.69877274330266
H         1.40510821122934   -1.89026922749770    0.91451097442870
H         1.45574379095321   -0.58071519496470    2.10418884215614
H         2.89032343398923    0.73326847724164    0.55811682892560
H        -0.14938382611692    2.75453995996351    0.33855877001557
H         3.39516693727245    3.32090742274212   -1.52076573417159
H         4.02436475377366    2.33270052380454   -2.94308724727499
H         3.96460409020444    1.66691694065221   -1.35106330629193
H         1.72832530152899    3.71923600212285   -3.60345572550978
H         0.21930502611908    3.14523367400268   -2.68209280315377
H         1.62154850097652    1.89764200575082   -5.05367665349932
H        -0.04830232028303    1.61028275104841   -4.30391897377808
H         2.12864661110897   -0.49561342388258   -5.35913905350427
H         2.71417271340582   -2.29302635975122   -2.46528963189276
H         1.19018568363874   -1.51379787969276   -1.73465995441969
H         5.74477214252050   -0.93236131533982    0.00160848142330
