32
 energy: -49.280563537510 gnorm: 0.149309134812 xtb: 6.4.1 (79825abcba525fcdf90b791dcacef51065a7a4e7)
C         2.10250316984753   -1.04470187305399    1.18971796449201
C         2.48338842585474    0.13252285529878    0.29098541561506
O         1.20561206621302    0.74210848296616    0.05420399337967
C         1.00062826098966    1.62044619218022   -0.95888773035498
N        -0.17566053391030    2.13229459925906   -1.05514518849523
C         1.95211609260375    2.07153739816116   -2.12469243007765
C         3.44234342991827    2.24724459329959   -1.72185316908416
C         1.36632989552240    3.05850428737689   -3.16283851302450
C         1.36349184712697    1.92062128881254   -4.19976297135161
N         1.96347184854778    1.03927450893155   -3.21010214901564
C         1.86048346740108   -0.36150662291920   -3.27092839865939
N         1.73281488865763   -1.15667213959960   -4.28618374100500
C         2.02586570097397   -1.13724920666742   -1.97778228593943
C         2.97648172041529   -0.66026288695509   -0.92963140627484
N         4.19723831488886   -1.08894399058878   -1.05417977818316
O         5.02652731110655   -0.48444772433292   -0.11920114227657
H         2.99025478709286   -1.61244151449165    1.49028232040307
H         1.47503834790320   -1.71616881449257    0.59666165827295
H         1.50292633960509   -0.63079941425885    2.00787581818892
H         3.32914872324478    0.72883029186989    0.65178563853036
H        -0.74877337893800    1.79177858692990   -0.27073132769770
H         4.16733786948797    1.54319871997569   -2.15058512516233
H         3.50943081365273    2.38485653057054   -0.63601657942130
H         3.79242213620461    3.21460268201778   -2.09187830659171
H         2.09492780573734    3.80260314924667   -3.49159754846618
H         0.38363579347014    3.29997895943056   -2.73704875473847
H         2.01705251119053    2.18146507780381   -5.04351705288457
H         0.37014936836035    1.63039287973042   -4.54363193362690
H         1.64257011391060   -0.67923887833865   -5.18006358842157
H         2.26576413041441   -2.15298572586079   -2.32296797126799
H         1.02307506766727   -1.22608821098042   -1.54905475285478
H         5.79364733147459   -1.08874540163768   -0.11181768793906
