32
 energy: -49.285669165043 gnorm: 0.127956953234 xtb: 6.4.1 (79825abcba525fcdf90b791dcacef51065a7a4e7)
C         2.23483271268850   -0.91882083911392    1.35897636816006
C         2.57763386923845    0.07799199599683    0.25104886565975
O         1.36770778485103    0.83438461365659    0.09509518106348
C         0.95833320516157    1.54917842579687   -0.98255622482179
N        -0.28672834455885    1.87127238161754   -1.01396964404642
C         1.87175727351698    2.07206773574199   -2.14881354945111
C         3.23003063635638    2.68844668687967   -1.71395674128339
C         1.15250776308187    2.99924706900398   -3.15778084659651
C         1.67428115767238    2.06188953909348   -4.26191466537653
N         2.17145401408993    1.12293739263428   -3.26825239146486
C         1.95009196037758   -0.26525111288585   -3.24761894887265
N         1.90454285988910   -1.04544122785050   -4.28133048938591
C         1.79557358163962   -1.05762785470121   -1.96324444042288
C         2.87505492341269   -0.82158945151351   -0.95884764419334
N         4.05807454114862   -1.34840992193918   -1.07043261037456
O         5.05275877776577   -1.08470526680218   -0.13856130082456
H         3.01677359235417   -1.61441878011603    1.68375648581737
H         1.46094790497543   -1.50716160044157    0.85772474481581
H         1.84661468047129   -0.35688807737714    2.21554406549252
H         3.41096434160021    0.73212522152259    0.53165512827053
H        -0.69423977734415    1.59040937645302   -0.11132630759462
H         3.95237606088797    1.88176676790905   -1.89449267122851
H         3.24271085784909    3.00496134608037   -0.66412983365053
H         3.49521825099954    3.47619108761371   -2.42416069677201
H         1.47504064669539    4.01215283107618   -3.40801069879250
H         0.05979062460225    2.91339672334019   -3.09538214883471
H         2.53832898647897    2.34773630876943   -4.87739411517911
H         0.92362661893647    1.50717870980782   -4.82584847266217
H         1.88674804001485   -0.43740433010875   -5.09685627306472
H         1.90265218632269   -2.09323023636974   -2.31607155166543
H         0.79350911559492   -0.94144360681653   -1.53938510317650
H         5.85215825638737   -1.48873037435727   -0.52769817742417
