32
 energy: -49.290102883894 gnorm: 0.118811740527 xtb: 6.4.1 (79825abcba525fcdf90b791dcacef51065a7a4e7)
C         2.13285003395436   -1.00646669004587    1.29075772985169
C         2.41407137965343    0.07551886243355    0.24726664463550
O         1.13952299778244    0.67104175555071   -0.03777967940575
C         0.91692299102894    1.68875025133507   -0.90643897927908
N        -0.14874720501657    2.40179105646129   -0.80237437864295
C         1.87370973859137    1.97293142337199   -2.11958081814257
C         3.30752007943300    2.39611974705200   -1.69646201102132
C         1.21575494875574    2.96332699840791   -3.11014050803125
C         1.25701235363314    1.86414673058870   -4.18721927197609
N         1.87960213507870    0.96518390747431   -3.22783171884768
C         2.05534830854982   -0.42626809389973   -3.32513944076978
N         2.27546483718303   -1.17127532920764   -4.36236833885578
C         1.96706249737796   -1.16204216697705   -2.00143372050091
C         2.94804313384915   -0.62668894780437   -1.01103936791548
N         4.12883484702814   -1.15767021064937   -1.12643557279032
O         5.19401863741337   -0.75398476765233   -0.33287235736760
H         3.10301260628715   -1.35645980154714    1.66097330365999
H         1.42480724740346   -1.78557481099378    0.99417437986585
H         1.76207373160545   -0.41017482737399    2.13168034363928
H         3.15614142227212    0.74808405137046    0.69230367663357
H        -0.64802157854176    2.25005359321219    0.08498993694887
H         3.25342350311196    3.07053957875538   -0.83197368242904
H         3.85862461297654    2.99222588210899   -2.43363235798652
H         3.93528007095557    1.53456595649974   -1.45377326977632
H         1.78356004032737    3.87892639908798   -3.28873403624743
H         0.23316057044842    3.36462508254032   -2.82949346765418
H         1.90342854158354    2.09948549340406   -5.04387774904848
H         0.28247943636235    1.54468890343066   -4.55794822580767
H         2.11549181455221   -0.79791629262090   -5.29517028688486
H         2.03605838777516   -2.24982883496789   -2.14420912986407
H         0.96398674161584   -1.03680003828371   -1.58257555615900
H         6.03560430238910   -1.08151924441543   -0.70456854740844
