32
 energy: -49.293430882431 gnorm: 0.121803845724 xtb: 6.4.1 (79825abcba525fcdf90b791dcacef51065a7a4e7)
C         0.76314753226127   -0.80899658497040    0.16129936777329
C         1.84101945812210    0.27377480585199    0.09459093767928
O         1.38763250945268    1.39286931843135   -0.68157928425554
C         2.22687104153142    2.21483569080792   -1.35973876483617
N         2.95074997606889    3.17310317123969   -0.89861806486424
C         2.08929784181101    1.98157952065462   -2.90718120551145
C         3.12735227010447    2.76955150650503   -3.75303764852776
C         0.59949858014818    2.22594184535061   -3.24744818393417
C         0.44987929834490    0.74681337535265   -3.64718702298993
N         1.87181220466743    0.58012996624022   -3.38931084160907
C         2.44749645009093   -0.58626974960595   -2.85583775438338
N         2.06135086705095   -1.80464711853810   -3.06979810137187
C         3.58616546633800   -0.50315428323770   -1.85689863758602
C         3.09335201842229   -0.43162676957297   -0.44912532010752
N         3.83610145648120   -1.15646893896878    0.33346878018640
O         3.61532411686256   -1.03228696595875    1.69844395127894
H        -0.18575686937263   -0.33419921453502    0.43501098760955
H         1.01461871372230   -1.55846043425006    0.91718422148315
H         0.58774450873106   -1.35009500225014   -0.77498913691540
H         2.03799620455322    0.68052218362453    1.09300295545473
H         2.93068358072751    3.26471757584947    0.12652520352516
H         4.17291826744630    2.61858710304274   -3.45452449091113
H         2.96167062444936    3.84790706453483   -3.64268486259878
H         2.88015160631835    2.54067272325098   -4.79311538841730
H         0.53626148477636    3.02689837140339   -3.98710367720676
H        -0.10333363087781    2.50717407095218   -2.45231929965164
H         0.26128900013749    0.53112528972403   -4.70785394656557
H        -0.20052316204582    0.12529161608750   -3.03083078695155
H         1.31872643345256   -1.91663355479730   -3.75614772416330
H         4.28047939216046    0.34171487937534   -1.96892246584022
H         4.17485263570555   -1.42008534311588   -1.95676632782304
H         4.39441549675666   -1.48289427068885    2.07748616744918
