32
 energy: -49.286552698301 gnorm: 0.128471612152 xtb: 6.4.1 (79825abcba525fcdf90b791dcacef51065a7a4e7)
C         2.03622914402732   -1.27167970610088    1.15477014219538
C         2.38524573293651   -0.08570407900984    0.25460290495593
O         1.24191839980512    0.77428038985468    0.13797605223703
C         1.05458998040514    1.60863063462403   -0.91493327604949
N        -0.10666520894423    2.16202723000977   -0.92710671384476
C         2.07200686401773    1.92248777891235   -2.07003912157498
C         3.49909691546851    2.42448788250571   -1.71600541241915
C         1.39447615861329    2.90518849848869   -3.05505072026661
C         1.60331595195042    1.85445759597412   -4.16064947925807
N         2.19096545287527    0.93967697125984   -3.19420176501451
C         1.92039968981053   -0.43962935429789   -3.22252996247026
N         1.51401089856663   -1.00505684323303   -4.31544844397498
C         1.81811300344851   -1.20833796017756   -1.91869743399931
C         2.91367985887073   -0.64166084201603   -1.07702209001275
N         4.18178185550241   -0.85180389881245   -1.27011191802125
O         4.99487655634358   -0.32341613736480   -0.27663096317518
H         2.86825071724005   -1.49678422934857    1.83140757796451
H         1.81162200183489   -2.14573736932438    0.53681337296895
H         1.13972683910937   -1.10030407878799    1.76066114044084
H         3.24199462307342    0.45123478695284    0.67738871583520
H        -0.72861457003962    1.88510052462001   -0.15496347751115
H         3.43606561298639    3.34531005398092   -1.12168041532406
H         3.97581156006392    2.67303326149802   -2.67174973195855
H         4.10583634760634    1.63551976678148   -1.26362068409932
H         1.73612045496723    3.94229493207697   -3.07265621708242
H         0.32031414045688    2.92823854932432   -2.82935338590991
H         2.35513674058973    2.18428434969949   -4.89077398543224
H         0.64114962466948    1.61687328078326   -4.61561907060297
H         1.41482659155425   -0.48435227449010   -5.18385908867537
H         1.86751769038933   -2.28545175553661   -2.13273048313244
H         0.89003921659363   -0.86312020511651   -1.45308763594405
H         5.92538918994221   -0.36549967005634   -0.57002240556189
