32
 energy: -49.289080210561 gnorm: 0.134123985607 xtb: 6.4.1 (79825abcba525fcdf90b791dcacef51065a7a4e7)
C         2.15246468838530   -0.94815596012849    1.44567146884324
C         2.47447590449769    0.04898663236714    0.33181903648673
O         1.33903607963349    0.91185449396966    0.16869961930180
C         1.00083587929737    1.61034611493049   -0.94376628776384
N        -0.18130915484687    2.11769129055055   -0.93716450679512
C         1.93947587131969    1.90177360378617   -2.16930205401671
C         3.31784302209058    2.42504580169767   -1.67917941889130
C         1.37080321273273    2.92997977084421   -3.17647626014740
C         1.65696360562978    1.84267268709587   -4.22808152713306
N         2.08028408817646    0.86311269677923   -3.23942654084849
C         1.89240299886188   -0.53011068839016   -3.25054007747725
N         1.78827974869038   -1.25434234070513   -4.32010902559461
C         1.72106820094247   -1.11250693730108   -1.86028336914847
C         2.83841975843634   -0.70085182962008   -0.95924362697276
N         4.06325566995105   -0.95001630704037   -1.31592345277389
O         5.05251079874591   -0.44963954392527   -0.48026897487828
H         3.05502240357090   -1.52852242853142    1.66778517095144
H         1.31666206167188   -1.61012818919219    1.20169919623029
H         1.94301133980877   -0.37783243139984    2.35729104852784
H         3.31919192887448    0.60352599269010    0.75609580189786
H        -0.77352538024532    1.81961896426758   -0.14967011653779
H         3.85776769311504    1.79954522685563   -0.95644918122951
H         3.04802174480948    3.41217647891290   -1.28516371908097
H         3.89012244161113    2.44690204004810   -2.61045486120215
H         2.08905414494595    3.71923466842154   -3.40845220514054
H         0.33570241167456    3.21429458152523   -2.94620240824635
H         2.41055040424461    2.15306020299849   -4.96487763158220
H         0.77340482764956    1.59115913322523   -4.81568044565172
H         1.82444494985094   -0.87281285888985   -5.26257130508038
H         1.87540046071290   -2.16471148524592   -2.13862173178725
H         0.75280983440028   -0.87489174047843   -1.40939150628842
H         5.76624230941384   -1.01308795300557   -0.83638208238923
