32
 energy: -49.290853936808 gnorm: 0.121730640352 xtb: 6.4.1 (79825abcba525fcdf90b791dcacef51065a7a4e7)
C         2.34002652315990   -0.88190004258720    1.33918960526388
C         2.37113598437434    0.07893401935021    0.14986965997486
O         1.08551628922201    0.69125117159450   -0.03074653488872
C         0.91546302429503    1.65573491830510   -0.96920448757442
N        -0.24060415142580    2.21456259825681   -1.04749827966493
C         1.98285095459367    1.93569822493622   -2.08733530027907
C         3.37393720890198    2.43013188357390   -1.60324400808827
C         1.35134379865643    2.89892082478289   -3.12096838441976
C         1.71441304828371    1.92062857166576   -4.25283546774134
N         1.99666867071730    0.94532071588728   -3.21106628156055
C         1.94423312664223   -0.45572473153211   -3.31506812754023
N         1.62511519207702   -1.09497320308585   -4.39620457198455
C         1.92295204201990   -1.21656445437157   -2.00280872053024
C         2.94325808464313   -0.71683938017834   -1.03375893883728
N         4.16618211275818   -1.15713911806702   -1.04468650044299
O         4.99648754194586   -0.65458409741676   -0.05203733354809
H         3.38520640064409   -1.15995177414666    1.51541793651748
H         1.67080243577070   -1.71128993434183    1.09312606583451
H         1.94116183956504   -0.36358352422618    2.21807801846401
H         3.06833469826373    0.87023520445204    0.44790696442964
H        -0.94049954681397    2.07864113031361   -0.30494432609785
H         3.88320605213305    2.53952772167793   -2.56957026023237
H         4.04232149843006    1.72805156280221   -1.09057987347937
H         3.23527241682171    3.36773692919160   -1.05833646867535
H         1.81232257656029    3.88597654338562   -3.19738901071470
H         0.28937685272633    2.87574185588155   -2.84350923746856
H         2.55594309005783    2.17193104111123   -4.91296896191772
H         0.79889537470972    1.63620187000565   -4.77258205683979
H         1.54484245711041   -0.50539095523409   -5.22146627764763
H         1.92520349879544   -2.29633086397323   -2.20902346260794
H         0.89950382336579   -1.02747884522107   -1.66503793110501
H         5.83556637661022   -1.07622939926714   -0.32011432399007
