32
 energy: -49.288173665288 gnorm: 0.123866988975 xtb: 6.4.1 (79825abcba525fcdf90b791dcacef51065a7a4e7)
C         2.07815778249126   -1.06902153236990    1.38133171112131
C         2.46067642338914   -0.01134870531774    0.34515629399362
O         1.27228085024639    0.75293651497182    0.09225998808702
C         0.98450664970603    1.59885683548749   -0.92825709595631
N        -0.23875443932555    1.99609624554307   -0.90100382925645
C         1.94581409224051    2.05624239633424   -2.08350570764665
C         3.38633823788918    2.47063598443437   -1.67472934971625
C         1.31817227399649    2.96204066463672   -3.17005603776350
C         1.76956994423238    1.87947353122653   -4.16719526903183
N         2.06345085198761    0.95042339289298   -3.08706725112420
C         1.90776334723490   -0.44543919059137   -3.14889963996627
N         1.90158230074631   -1.16607272926630   -4.22592329885595
C         1.73308501136085   -1.15023999651457   -1.81694693490923
C         2.86553363550918   -0.80516723935751   -0.90684147517078
N         4.05369068182360   -1.03026542054823   -1.38343362972101
O         5.11292535721443   -0.37250596370479   -0.77294577708264
H         2.91932800727909   -1.75722177971246    1.52127182499905
H         1.14351274910503   -1.57500089079590    1.12303094874242
H         1.84618963771178   -0.61621105518758    2.35156021053595
H         3.25445811758123    0.63181907740324    0.74178667167458
H        -0.89395013061901    1.65652809896138   -0.18328058392881
H         3.22347826685667    3.20101400071218   -0.87152750268748
H         3.78351128635501    3.09967004079769   -2.48036486547034
H         3.97512355142301    1.58306583900855   -1.42813969540203
H         1.69483792850166    3.98684956180280   -3.19264442655676
H         0.22370672395918    3.00903951312543   -3.09773113556443
H         2.69776548916035    2.22433974484450   -4.64324389967992
H         1.03158234364232    1.53224162477462   -4.89108198311611
H         2.04275220699517   -0.70602989159973   -5.12232692534491
H         1.54942985760680   -2.19831950891361   -2.09303606288124
H         0.75865639282571   -0.79687309318620   -1.46636253128348
H         5.90088632803672   -0.59489942091486   -1.30526333407068
