32
 energy: -49.290979516172 gnorm: 0.126878730376 xtb: 6.4.1 (79825abcba525fcdf90b791dcacef51065a7a4e7)
C         1.92277630442103   -1.27812792791768    1.11554717050876
C         2.31331827775768   -0.11833327080824    0.19848385666955
O         1.13458354140697    0.60525304339770   -0.18541683336087
C         1.01237585509445    1.67725733217909   -1.00744019088501
N         0.06760953128408    2.55028639754780   -0.99533893561113
C         2.07727970058642    1.94216084663674   -2.13159270921260
C         3.50987057371349    2.23163071416821   -1.60450584044337
C         1.62746017488755    3.00345597582859   -3.16421628390086
C         1.36027981410967    1.85011562340478   -4.14829899654601
N         1.96732325123012    0.91371644656134   -3.21511545634480
C         1.78350688051389   -0.47999647866541   -3.23154729765517
N         1.08583566849625   -1.12493496548397   -4.11281915511255
C         2.30901052164655   -1.34784858273328   -2.10370275430768
C         3.08008825894825   -0.72082926782351   -0.98921054125901
N         4.37914838878752   -0.76497976915861   -0.99367508503141
O         4.97791918787631   -0.01994725736396    0.01316209233942
H         2.76667037328479   -1.70488693564730    1.66916229795619
H         1.42219365281231   -2.00291951704479    0.46717236014921
H         1.20798196395141   -0.80380736564272    1.79692734736021
H         2.94201529609509    0.54918549192823    0.79867431674642
H        -0.67757796387160    2.21081008856694   -0.37150720993784
H         4.19755073658591    1.55151863188107   -2.12378627706999
H         3.61893438196701    2.05262609263632   -0.52815028316804
H         3.72734964950868    3.29414507340457   -1.74242414050644
H         2.42239836916014    3.68378924365101   -3.47701085942893
H         0.75232808047973    3.57659425596901   -2.83112326765680
H         1.94671899397092    1.92559152099545   -5.07430895737784
H         0.38679193403337    1.57240527061053   -4.55376906297995
H         0.52111106590723   -0.60500575957404   -4.78055230380204
H         3.01034972851846   -2.04473206395292   -2.58422519148042
H         1.41973509216118   -1.92123079420107   -1.82493626419348
H         5.91763072341431   -0.17700232278654   -0.20126565717274
