32
 energy: -49.285644740242 gnorm: 0.124935125755 xtb: 6.4.1 (79825abcba525fcdf90b791dcacef51065a7a4e7)
C         2.21002665619833   -0.94530422763529    1.42762821122479
C         2.53822828682818    0.06708132147872    0.32944289601361
O         1.29789985384819    0.72144289737882    0.02322601818643
C         1.05344477265115    1.58040777179650   -0.99769089808175
N        -0.15288207065038    1.90781408528776   -1.30181299017423
C         2.01625331149645    2.02639451097756   -2.15614178989932
C         3.41390493118084    2.58971661725952   -1.77776613381756
C         1.30165113390355    2.98271569230831   -3.14092091348170
C         1.45059013561587    1.88970928374440   -4.21477018898736
N         2.17612569889622    1.04625635917837   -3.27756048948702
C         1.79073409402223   -0.30554486271853   -3.25304523187424
N         1.16907119359422   -1.00699772631536   -4.14793628622301
C         2.07747831919318   -1.13911860826721   -2.01842494323217
C         2.99331582054256   -0.69099543986753   -0.92744634760940
N         4.22904865420755   -1.06498935563637   -1.07784362204949
O         5.09744448697185   -0.77696826071337   -0.03369155412674
H         2.88489429637204   -1.80857872120809    1.41862963428398
H         1.20240535307529   -1.32993988173569    1.24583036955232
H         2.18310620947114   -0.44024478066703    2.39942043693329
H         3.28601588272864    0.79312453059966    0.66818290178827
H        -0.78849696635860    1.59270729475246   -0.55588001552058
H         3.37669028712515    3.04465845481598   -0.77939164744639
H         3.73683146977045    3.31883973053330   -2.53047908903250
H         4.08077712052173    1.72499400059559   -1.83060222706145
H         1.72939737625856    3.97653974527777   -3.28913506056285
H         0.22178593171800    3.05974153535791   -2.95856743015140
H         2.07826159088256    2.03354381300962   -5.10496238884156
H         0.54717658281046    1.45023440608572   -4.63893225909236
H         1.03040055589998   -0.46056054088589   -4.99486289570569
H         2.64410445641298   -2.00144152961156   -2.39758070555805
H         1.05394261329973   -1.41381410238644   -1.74601760561854
H         5.91005356922874   -1.28652608605485   -0.21732331742384
