32
 energy: -49.289149479122 gnorm: 0.122363119181 xtb: 6.4.1 (79825abcba525fcdf90b791dcacef51065a7a4e7)
C         2.30154275124603   -0.96683906094084    1.42750982219543
C         2.41414343125377   -0.03278307028677    0.22189284647085
O         1.14096399472538    0.58654843040944   -0.01435934627175
C         0.97487627817950    1.52462881924363   -0.97990082946981
N        -0.22610254504322    1.97212940935556   -1.09081825122803
C         2.04646945717113    1.97408699894090   -2.03706132452448
C         3.40934170946055    2.45950501152938   -1.47059990924852
C         1.33362139291958    2.93020506035522   -3.02330788315891
C         1.76371085955199    2.00539020743420   -4.17645082342516
N         2.19743238429488    1.02888548705299   -3.18928272067653
C         1.77834032853669   -0.31178969882402   -3.24798624966094
N         1.56411651058290   -0.97497044401888   -4.34052015157154
C         1.72988134617082   -1.18030319395940   -2.00513037279751
C         2.81226940871332   -0.79708631290475   -1.05046397974612
N         4.07799975913005   -0.95025356436318   -1.30343216047513
O         5.06058957159671   -0.53169876582806   -0.41649915702974
H         3.19090056164019   -1.60596542945148    1.46398351006483
H         1.44474840689520   -1.64092203568293    1.33912811808716
H         2.03485151705010   -0.50611397836723    2.38500554902035
H         3.23553937332106    0.69197459597284    0.25513239317804
H        -0.76672077833655    1.62616323537747   -0.28598664083251
H         4.10023773747653    2.48842676332528   -2.32320464182074
H         3.87522697053822    1.74353399910013   -0.78298426039748
H         3.31788345572025    3.45570469244518   -1.02960450481834
H         1.74516452229042    3.93034302287516   -3.17488899690319
H         0.24602526613416    2.98701557401423   -2.88473712752749
H         2.58722207841602    2.39444644713051   -4.79091521502910
H         0.92912966451508    1.59753448720988   -4.74770874832072
H         1.66233699543189   -0.40228780026302   -5.17568190045259
H         1.85838558410915   -2.21494655996412   -2.35359105887326
H         0.77564584862988   -1.18211280566903   -1.46966791135528
H         5.88833913306674   -0.87795117442664   -0.80204196327278
