32
 energy: -49.283317542677 gnorm: 0.131431716836 xtb: 6.4.1 (79825abcba525fcdf90b791dcacef51065a7a4e7)
C         2.29508173508899   -0.86074955136150    1.39082071964592
C         2.55798344575048    0.16014111101768    0.28297742773240
O         1.33467891745452    0.90529454822056    0.18999963290460
C         0.99934103143471    1.50297363675573   -0.98054661580726
N        -0.26083238113429    1.74721403657762   -1.06551249039604
C         1.87543234375287    2.12537623924797   -2.12640522091532
C         3.27585762849364    2.68703495986518   -1.75589411682057
C         1.05081227361641    3.00057365903894   -3.10058569908498
C         1.46119303496253    2.01776332714538   -4.21219245549856
N         2.00327438405735    1.10609832410263   -3.21660648902647
C         1.97720929888902   -0.29896396615793   -3.25679072474014
N         2.22750540222934   -1.01032019363974   -4.31066692160275
C         1.81380405789584   -0.99084265264214   -1.91665740872951
C         2.91352184202176   -0.67475744061876   -0.95722113752632
N         3.97869073603998   -1.40113838788871   -1.12248569299266
O         5.12909991957760   -1.25230580813175   -0.35977435567179
H         2.97214616065723   -1.70767316817408    1.23247200802024
H         1.23262939613493   -1.09626384903641    1.28116772853931
H         2.53153156401348   -0.52185877014884    2.40543118899127
H         3.36797030635924    0.81970499624588    0.61458954756739
H        -0.79501938325735    1.22180924932722   -0.35960269133762
H         3.09315364347069    3.32217464601352   -0.87935235782685
H         3.55513277922882    3.15345317197025   -2.70822720272795
H         3.92674518336401    1.82865666635803   -1.56938012570672
H         1.33082633554694    4.05578785296392   -3.12770872047236
H        -0.01630271696771    2.92342179464089   -2.85439915786737
H         2.22613013958248    2.48132913282373   -4.85022062288478
H         0.70425576853722    1.64824323024305   -4.90480240365737
H         2.32725096559863   -0.49263020922386   -5.18081387433492
H         1.77949275488923   -2.06748809779312   -2.13593441241803
H         0.86267085072457   -0.64134582974425   -1.50375752929501
H         5.83651068364708   -1.80870982055040   -0.73883623364638
