32
 energy: -49.288811495579 gnorm: 0.136393934796 xtb: 6.4.1 (79825abcba525fcdf90b791dcacef51065a7a4e7)
C         2.38242849818680   -0.79569978880452    1.32500654754160
C         2.45868987160625    0.15908642416048    0.13285751428466
O         1.13169925508905    0.66982516234450   -0.06364782482281
C         0.89731207069495    1.73092697608489   -0.87542113732749
N        -0.17334181367195    2.44064225792476   -0.80532072340385
C         1.86383253132227    1.95497145699819   -2.09343394443027
C         3.34611297319738    2.32977785734503   -1.81721876006835
C         1.24957445825323    2.86803289887138   -3.18155260345108
C         1.56608761900438    1.81106749704457   -4.25516410731784
N         1.91596986885412    0.91146241406234   -3.16683061608046
C         1.88794880792393   -0.49168188600730   -3.24986727001846
N         1.87971405640524   -1.15160836287797   -4.36510719705774
C         1.83909017299513   -1.24580825717184   -1.93447343159495
C         2.91067266305055   -0.75179981765312   -1.01933755345306
N         4.14427426669070   -1.14659085358263   -1.12839520312555
O         4.97164189619175   -0.53229723398594   -0.19811181659297
H         3.24263984362457   -1.45051853243007    1.50394513463835
H         1.55676605790799   -1.50690537481892    1.23139092220577
H         2.25923676130119   -0.19344694799593    2.23181700395470
H         3.15061504558127    0.99855241859464    0.26554602573067
H        -0.79018616451131    2.06266486608135   -0.07296102670564
H         3.89038162403309    1.44313502366516   -1.46686930816436
H         3.48943036382485    2.98815261592446   -0.95207041718361
H         3.88210715618353    2.85643233789241   -2.61132244086062
H         1.74622505785915    3.83638318035287   -3.27241759393626
H         0.18212612450198    3.03726972612833   -2.98865994123372
H         2.51673654427512    2.03824145575569   -4.75692160887719
H         0.74486428589046    1.47454878941805   -4.88884783505502
H         2.09603948834466   -0.57988894823692   -5.17840175444288
H         2.02338658796758   -2.29530667489568   -2.20468259884937
H         0.87719975289322   -1.09172411636273   -1.43616266914196
H         5.60160812599680   -1.27829064932702   -0.17968090977975
