32
 energy: -49.288597524169 gnorm: 0.127762959979 xtb: 6.4.1 (79825abcba525fcdf90b791dcacef51065a7a4e7)
C         2.15464308194607   -1.00227600308512    1.31616862564270
C         2.42625489265809    0.07095220043070    0.26115200663765
O         1.16455800264430    0.67354646358811   -0.06346098770637
C         0.87967763620032    1.61246522022385   -1.00001053995571
N        -0.23574879647808    2.24192503274070   -1.12048382501539
C         1.97696034899170    1.94599620537094   -2.07362158735718
C         3.33947340568062    2.44944653200160   -1.52223613614822
C         1.54045397623655    2.93415592198612   -3.18177273179521
C         1.54222608312735    1.77037366314128   -4.18954543175461
N         2.01714924113526    0.88895403458397   -3.13421414200984
C         1.67010784139138   -0.47328988488465   -3.15286875267283
N         1.49220612208512   -1.18431476137629   -4.22157146331725
C         1.93663368447321   -1.26767007357971   -1.88824279959884
C         2.95380029038890   -0.75408622539939   -0.92314655645602
N         4.20097234820577   -0.93813843634748   -1.23971104721538
O         5.20130831068460   -0.35297925144506   -0.47535660922148
H         3.10676933943384   -1.36196423266329    1.72218602795908
H         1.61914601024859   -1.91031525681070    1.02461531623818
H         1.73950483108380   -0.46827889598485    2.17796745046332
H         3.16922010028047    0.70094633580356    0.76332719420917
H        -0.88587197096277    2.13541163963104   -0.32946591211951
H         3.27053411896031    3.47432716336221   -1.13496919670780
H         4.09961101874749    2.45515183298687   -2.31257600889270
H         3.71978990685511    1.83652393423875   -0.70068844270469
H         2.24972193959678    3.73921222265094   -3.38535033858733
H         0.59357531741598    3.46289087406584   -3.01102502052143
H         2.22168208016659    1.96006711798108   -5.03183867924574
H         0.61635263521555    1.46350243047067   -4.67718882535784
H         1.53781243665815   -0.70018314495675   -5.11524056449405
H         2.31641044257087   -2.23486809294625   -2.24702225509565
H         0.98240651105666   -1.48079792107422   -1.39700381507887
H         6.02957653612708   -0.45602551815132   -0.98236404119107
