32
 energy: -49.295434061147 gnorm: 0.118837273282 xtb: 6.4.1 (79825abcba525fcdf90b791dcacef51065a7a4e7)
C         2.03618408534692   -1.01604059805208    1.27649618619525
C         2.46572947553546    0.00891035105975    0.22596387627170
O         1.24369158663851    0.71293653170072   -0.04113728855659
C         1.02147007868447    1.74129233276965   -0.89726361190268
N        -0.04890853100124    2.45483485579806   -0.90476769289993
C         1.93388895075614    2.00591363564123   -2.14841521863660
C         3.41771148776763    2.37439601573968   -1.87197097937623
C         1.28392289335574    2.98724956426910   -3.15316410828017
C         1.10424889918913    1.79582604515976   -4.11140486996108
N         1.83933129884378    0.93817577513294   -3.19474431762977
C         1.94325832364851   -0.46271956250113   -3.25118580445056
N         2.10244806116698   -1.07628480102667   -4.38146329336539
C         2.02263218949974   -1.29774970069716   -1.98715290872119
C         2.99865591324592   -0.76020202582766   -0.99305672224993
N         4.26063635257035   -1.06523480945857   -1.05540106596057
O         5.00430683060636   -0.57769681367728    0.01070490739592
H         2.88998912748091   -1.70287125087243    1.28362159287878
H         1.10147149313822   -1.50953804166883    0.99530518473798
H         1.98711616764190   -0.57193916813375    2.27677422276602
H         3.27907126983781    0.66407298222711    0.55808869565381
H        -0.71444077183745    2.26747908710772   -0.14208870475991
H         3.38797980115376    3.06632398653027   -1.02023138442279
H         3.80095498640812    2.83834323366782   -2.78868045607878
H         4.08726456155213    1.54864887887238   -1.61683235925907
H         1.97865328633234    3.73880691169715   -3.53412574838330
H         0.35391626171713    3.32553996296987   -2.67783064089713
H         1.54931084659333    1.92988834709410   -5.10691937788165
H         0.09988481218137    1.41138334168951   -4.29213744495825
H         2.06473234058567   -0.53249675730422   -5.24052086208879
H         2.27641637797156   -2.29707547798607   -2.36842272253194
H         0.99913485778874   -1.41920011332904   -1.61974070737138
H         5.91695677620653   -0.52428761760933   -0.33269115885565
