32
 energy: -49.286505649801 gnorm: 0.129508805253 xtb: 6.4.1 (79825abcba525fcdf90b791dcacef51065a7a4e7)
C         2.28259010773272   -0.79610516129699    1.51033980351166
C         2.39103712132506    0.10485172569672    0.27941830647142
O         1.19523522784264    0.87732658061904    0.09580754246641
C         1.02866228772541    1.67640499472107   -0.98751025294990
N        -0.15763257185097    2.13599563070468   -1.17827330987946
C         2.06674420246323    2.00023201764544   -2.12128047409720
C         3.46318604869769    2.53410953967491   -1.69836804147221
C         1.35949392981391    2.83562526868411   -3.21531500819686
C         1.70794609744665    1.70828132976593   -4.20408941763732
N         2.17349404011761    0.87608155439790   -3.10550608316436
C         1.83450983425390   -0.48637993908698   -3.17818751657696
N         1.69812722456927   -1.13407018672919   -4.29229164019989
C         1.71534040251725   -1.29109831330714   -1.89772600414721
C         2.73705655594330   -0.70807406309663   -0.97795110732661
N         3.97700651713670   -1.03703816539472   -1.18731478561545
O         5.03205837466597   -0.62457053544902   -0.38478313728573
H         3.25355269733208   -1.28322169339734    1.65428178538974
H         1.58365545315368   -1.62412615183484    1.36145287342883
H         2.01847039130446   -0.09254717959447    2.30748272119264
H         3.06675509981738    0.93557151573336    0.51261282375838
H        -0.87600668688366    1.90231588816606   -0.47895436205693
H         3.75754834321757    3.13428629001262   -2.56914202624255
H         4.09928322973281    1.65374696811482   -1.54730191099195
H         3.39005031701973    3.19137509882622   -0.82778862958930
H         1.76247755481380    3.83332320742511   -3.40192570061903
H         0.30151294879488    2.83872376018758   -2.92212347431846
H         2.46508664124205    2.04757376378733   -4.92431217108135
H         0.86979456243929    1.28092860586220   -4.75552330166653
H         1.58662347907012   -0.51112483734833   -5.08891816971626
H         1.95244098386018   -2.33962878345736   -2.12749164992981
H         0.74554183059378   -1.21959347267137   -1.39606227465462
H         5.70645245182279   -1.15051031787586   -0.85625243449711
