32
 energy: -49.285506622274 gnorm: 0.133615610705 xtb: 6.4.1 (79825abcba525fcdf90b791dcacef51065a7a4e7)
C         2.30493410046849   -0.84966552052521    1.41298456421291
C         2.57190412069585    0.12231927081581    0.26293048902398
O         1.36899108799267    0.86756429695658    0.02213481040076
C         0.87542568748748    1.58561744850665   -1.01740507747245
N        -0.22998351846766    2.23803760622971   -1.10300891626999
C         1.90694647505077    1.96485280876793   -2.13992829352799
C         3.24249842563899    2.49876401065602   -1.55241674909249
C         1.38585263407419    2.93225324162452   -3.22969616680352
C         1.53567557070854    1.83158001462919   -4.29556184218026
N         2.04947315714505    0.96499360367679   -3.24617310345474
C         1.86708211708109   -0.42867028626378   -3.27664738737431
N         1.59713120797390   -1.19439932273638   -4.28665551424452
C         1.89366042916867   -1.17592501609488   -1.95670092569077
C         2.92310112135380   -0.70862256820475   -0.98115630647030
N         4.12238129022072   -1.19097799822702   -1.11748953747224
O         5.11458537031917   -0.69087801798057   -0.28517223563490
H         3.18290125214677   -1.45710488340040    1.65988790686408
H         1.59745849211996   -1.63312580535200    1.12669104902983
H         1.88988611100981   -0.36922531024972    2.30579039777309
H         3.41354322437871    0.76663553405388    0.54144440594932
H        -0.90419686960930    2.25752780394290   -0.32533863292550
H         3.96528032642484    1.68610197102081   -1.40316744312182
H         3.09773029392728    2.88784588025356   -0.53746042090217
H         3.61119692390246    3.26804797881691   -2.23617033565062
H         1.93865286779478    3.86006652656771   -3.39154468448307
H         0.34711134461635    3.18779608627144   -2.98269612679791
H         2.21718476679242    2.17418029163245   -5.08630341728487
H         0.66764735133120    1.37547494064435   -4.77274403743969
H         1.58401700992978   -0.81283710950659   -5.22970700247283
H         2.03271054244426   -2.25720063989260   -2.09788582000741
H         0.93444411449621   -1.23872638961059   -1.43396891002919
H         5.85347977259602   -1.29694555539597   -0.48622080155569
