32
 energy: -49.281869464689 gnorm: 0.125985229591 xtb: 6.4.1 (79825abcba525fcdf90b791dcacef51065a7a4e7)
C         2.16173106237444   -0.32789337787396    1.54565755710771
C         2.44638103414941    0.35133716370847    0.20540680763498
O         1.18855396919523    0.95783609310683   -0.12686206153151
C         1.00295748916678    1.76041520929293   -1.20448491732282
N        -0.00685224195477    2.53111296191330   -1.40750923898035
C         2.08568217254024    1.92982654730818   -2.33006032801004
C         3.39063204765273    2.58130357238905   -1.79469738330292
C         1.42582402842480    2.75694673164304   -3.45942113580594
C         1.46824726430718    1.48689022352070   -4.32841758993833
N         2.17743090945588    0.77334650916685   -3.27766042215096
C         1.83540687446618   -0.57373238163911   -3.06578257069920
N         1.62396776291805   -1.39440635292738   -4.04614913892719
C         1.91685034935025   -1.35202756198195   -1.76617560987483
C         2.85459139042053   -0.77426349594222   -0.75789120908390
N         4.00510588276547   -1.37911246204479   -0.75714791711186
O         5.03289400903458   -0.88276159230080    0.03317378549407
H         3.07122377965371   -0.75648821782133    1.98143229259628
H         1.49732292048312   -1.17227096942643    1.34100165533785
H         1.62493402648810    0.23838722869388    2.31466022374935
H         3.10471172252456    1.22653252149167    0.24668171718355
H        -0.57222325652334    2.65838411346009   -0.55670241297616
H         4.00198823653191    2.87354389590016   -2.65838009286045
H         4.06990529705754    1.83309948048125   -1.36895409901219
H         3.13549760845397    3.46064033014112   -1.19726232389228
H         1.90645233317577    3.66320744328341   -3.83399887893112
H         0.38690323296279    3.01631760589483   -3.21721263144646
H         1.95485297100272    1.52611124392462   -5.31268308873362
H         0.49273387505856    1.01289602263146   -4.44204331011901
H         1.59195352303940   -1.01894445376725   -4.99119478207252
H         2.26852098196428   -2.36341891777401   -2.01485286139092
H         0.90918160225905   -1.40388254749667   -1.34285130924958
H         5.87696408437412   -1.18427029925770   -0.35456521119229
