32
 energy: -49.294598469662 gnorm: 0.130789715865 xtb: 6.4.1 (79825abcba525fcdf90b791dcacef51065a7a4e7)
C         2.17085649970641   -0.37123430036018    1.65731869576645
C         2.47580975435081    0.33527333477977    0.33576571270185
O         1.28841027032306    1.10018091682949    0.08008750223098
C         0.98378349685946    1.79821811006254   -1.04231925384272
N        -0.17263683989227    2.35827222845764   -1.10509657441474
C         1.87089177614939    1.88292459148750   -2.33606446152850
C         3.39203650504561    2.09440511077075   -2.10085243049936
C         1.43051503792030    2.76330242673707   -3.53021670726560
C         1.63642178152836    1.55797798926853   -4.46552067918980
N         1.62482294845741    0.73481213072517   -3.26617079776330
C         1.85967851969768   -0.64332884701328   -3.11762938055983
N         2.14070590671886   -1.37755563335866   -4.14780680256434
C         1.68265253440036   -1.14201893412226   -1.69589638027019
C         2.78142940995076   -0.61357559519418   -0.83378034542814
N         4.00085338549372   -1.05281761573079   -0.93175002016575
O         5.00649333225807   -0.69706692660401   -0.04323960344258
H         3.07187521472433   -0.94141013721045    1.90997449689467
H         1.30428041385635   -1.03745430688537    1.61868551447445
H         2.04573673292503    0.29170534165799    2.52047914584372
H         3.30603338388459    1.04130453162030    0.45117158205508
H        -0.77146297938254    2.22880220233467   -0.27783642697510
H         3.85058359820184    2.67595947555998   -2.91118428028108
H         3.85882316598054    1.11411304807484   -1.94717567381160
H         3.54463114853232    2.65376641985458   -1.17398395490462
H         2.13171301740559    3.57796191342675   -3.72327588637691
H         0.38481545122171    3.09762996595645   -3.53588198699429
H         2.64677382253889    1.46892579823979   -4.88784808973623
H         0.84170463483246    1.21192107853303   -5.12724339384595
H         2.25135468656404   -0.83968918169890   -5.00429051644485
H         1.69825315601037   -2.24104797906555   -1.71369726799396
H         0.73053487311688   -0.73855629756718   -1.33815543380127
H         5.76598203456725   -1.19656304144574   -0.40014836713504
