32
 energy: -49.293776214364 gnorm: 0.130608001465 xtb: 6.4.1 (79825abcba525fcdf90b791dcacef51065a7a4e7)
C         2.19504785943215   -1.00607303266770    1.34048314295761
C         2.47313726042269    0.03023098242054    0.25080792522359
O         1.32262822030929    0.88266109534620    0.15048682725879
C         0.91247407602592    1.62054364481057   -0.91118789448742
N        -0.25459547886836    2.15530344424936   -0.99419508998700
C         1.87576733765063    1.98925224588522   -2.09610686737582
C         3.24214759483767    2.52192745962161   -1.58308437014317
C         1.25941353691766    2.89836528019548   -3.18634439060516
C         1.70788431012629    1.88246981513573   -4.25256597508087
N         2.07410084138656    0.97262516949408   -3.17820808993163
C         1.97471596417573   -0.42764661550938   -3.25473124205417
N         1.93762704332772   -1.03307952015300   -4.39989772965764
C         1.70161376496284   -1.08820491703425   -1.91666075138936
C         2.84313860808328   -0.76919534154621   -1.00838713148096
N         4.06038132615908   -1.16004870408488   -1.24307895408924
O         5.07388921842379   -0.84278743466345   -0.34894917820975
H         3.18177126333291   -1.37751614873097    1.63910849138964
H         1.63574939002227   -1.86887616264943    0.96758676004531
H         1.76403462504776   -0.70813666206697    2.30259093062860
H         3.24771134391260    0.73317201465887    0.57788395541015
H        -0.77434412663865    1.87132685216393   -0.15221336439071
H         3.97285433902925    1.70821474131182   -1.67820474515007
H         3.23685415747130    2.84209572009775   -0.53430264145182
H         3.62061535947104    3.36450807931481   -2.16795650633331
H         1.59604045775835    3.93477325072304   -3.25818698591265
H         0.16306629281547    2.95001560529754   -3.16085742241205
H         2.55326476137715    2.25603166014255   -4.84660756866187
H         0.99080188852954    1.48373078502876   -4.97090270487621
H         2.15262701052291   -0.47827161380305   -5.22516800114152
H         1.73846851468679   -2.18409412667658   -1.99472263672784
H         0.82494738917967   -0.62215604731737   -1.45672245048491
H         5.86363532132173   -1.00645961158457   -0.89959955245931
