32
 energy: -49.285546044797 gnorm: 0.130752442295 xtb: 6.4.1 (79825abcba525fcdf90b791dcacef51065a7a4e7)
C         1.96433458054051   -0.82143509944258    1.47474885969323
C         2.50966500331358    0.05907130205617    0.34959331701239
O         1.36809009726233    0.90454077581429    0.14377651255754
C         1.03807826198372    1.53269895638543   -1.01223376893558
N        -0.21477709654022    1.72261056534072   -1.23403686169843
C         2.00880834068742    1.97396408570654   -2.16587197041503
C         3.35273049056958    2.48847308278221   -1.58013848237948
C         1.35861811581435    2.90887902645662   -3.21381428837187
C         1.81575731059994    1.88467225011724   -4.26833898574913
N         2.20940300798571    0.94186481864005   -3.23280342460728
C         1.76314501121856   -0.39063445037428   -3.19045143164658
N         1.32381463819150   -1.08723795138953   -4.19098290972507
C         1.86273608889982   -1.13875566503523   -1.87449135553326
C         2.91202305441357   -0.77666456654759   -0.87564508119477
N         4.11935798558322   -0.99963913814499   -1.30243672256208
O         5.15928321469537   -0.51522139497276   -0.52063369372951
H         2.69336751953510   -1.61416896074087    1.67687297277928
H         0.93267173941701   -1.17843005212402    1.40750221886531
H         1.93996065279471   -0.22617659150800    2.39413077453474
H         3.42013406230658    0.60018262853615    0.63122151798965
H        -0.73111216366698    1.41781169680306   -0.39725114452837
H         3.12516088726362    3.31668107940894   -0.89647759499303
H         3.90490106092025    2.95881656241600   -2.40255171716334
H         3.99093512917513    1.74279231536005   -1.09856772500347
H         1.80353887347019    3.90182862883296   -3.30717987655591
H         0.27149944860050    2.86774748551557   -3.06624794110651
H         2.65130993964391    2.19616000971496   -4.91015605688420
H         1.06819020884822    1.32240743515000   -4.82888281594832
H         1.30027126527148   -0.58754787459373   -5.07690804903228
H         2.14898136777655   -2.18139449033093   -2.07296806076916
H         0.91161759867424   -1.35649596828153   -1.37926265283523
H         5.94016297040024   -0.63476285042757   -1.09477650704731
