32
 energy: -49.283002592993 gnorm: 0.135219426963 xtb: 6.4.1 (79825abcba525fcdf90b791dcacef51065a7a4e7)
C         2.45885974807701   -0.61449619828359    1.44255882434356
C         2.62397420635396    0.15988722423467    0.13423189647661
O         1.37138590675645    0.86036742362707    0.10735192998970
C         0.90663952061776    1.59659777377165   -0.93275671893318
N        -0.33411558911149    1.78767513333491   -1.21369409814259
C         1.88603485683343    2.04192886998589   -2.07747413497435
C         3.20572934792446    2.68856758735473   -1.57329676551002
C         1.20281050561604    2.99547019817152   -3.08690953894242
C         1.59147204024482    2.02549499372812   -4.21743526681187
N         2.05498437642957    1.08028978030348   -3.21348302040117
C         1.97251164331495   -0.31934322370695   -3.31702006225476
N         1.85802080488509   -0.87622423936182   -4.48153981867509
C         1.94972779608471   -1.26074069093309   -2.12764778871696
C         2.85130529882611   -0.83226896363644   -1.01707270975061
N         3.97080584820366   -1.48569233269982   -1.11342032229610
O         4.95658401707553   -1.24126941089704   -0.16694271787234
H         3.29114390460834   -1.32480396214622    1.50202417879165
H         1.55874284087026   -1.23123730283185    1.51816105508188
H         2.39010970724520    0.06085093431159    2.30242484454163
H         3.41473359986889    0.89036357457244    0.33959429563611
H        -0.99333183676982    1.37182061362567   -0.54122584999778
H         3.91900542309465    1.93799598993614   -1.20862137870899
H         2.93452185901735    3.29866167441453   -0.70340564117642
H         3.67180074240174    3.43111543901526   -2.22648549135112
H         1.64519169042982    3.99355247318218   -3.11431749884805
H         0.13407690647839    2.85900071285798   -2.87600858875392
H         2.46823619270111    2.35729595790351   -4.79040535341256
H         0.73146803403131    1.61088179648058   -4.74440460551410
H         1.81964387395847   -0.19760105756129   -5.23857721012870
H         2.16890327816137   -2.27157036874304   -2.49995217168633
H         0.90237612673446   -1.16464525568746   -1.82580532856192
H         5.53104975880931   -2.02944253117126   -0.11718765271457
