32
 energy: -49.290583520422 gnorm: 0.116423385322 xtb: 6.4.1 (79825abcba525fcdf90b791dcacef51065a7a4e7)
C         1.96174129983597   -1.01272523466148    1.36718975375637
C         2.44154643204798   -0.05680370552003    0.27418797651495
O         1.31573197690620    0.82888144915044    0.18212216836557
C         1.02022406127129    1.68162885592840   -0.83047215423839
N         0.07232937494054    2.54928328396683   -0.77063008849194
C         1.88495895198430    1.92722417121916   -2.11881584920512
C         3.30205728734729    2.37251103677055   -1.66331400921008
C         1.21884676802402    2.88173853247863   -3.13871452037101
C         1.58339740547068    1.82485307844579   -4.19705948925328
N         1.96179813332935    0.86467331735973   -3.17185491994658
C         1.92387259486454   -0.53683002736762   -3.27599062902738
N         2.06810385021723   -1.21805688957413   -4.36890333719215
C         1.88031427199531   -1.34352990977302   -1.99197634113638
C         2.85960280854963   -0.77762407657664   -1.01701398362092
N         4.09794626092893   -1.01819183745740   -1.33031750070637
O         5.04226404101849   -0.39239064212984   -0.52784767823164
H         2.80863006818109   -1.32766104111847    1.98716153970120
H         1.41227363916116   -1.85145179374961    0.93024721226770
H         1.30968403451875   -0.46123114682522    2.05338614357718
H         3.24520052227698    0.52409056141481    0.74084823674685
H        -0.58269963612279    2.36780616092030    0.00249191866052
H         3.21441306602423    2.96634996853756   -0.74419353814370
H         3.76862989743396    2.97590004755430   -2.45116587615472
H         3.93591066547863    1.48886014795980   -1.55085789639095
H         1.65919784000393    3.87258453179403   -3.26885164953120
H         0.14677271768699    2.91680188064009   -2.90478627216196
H         2.35737260580364    2.13676139681149   -4.91174652874957
H         0.78227998535729    1.46940486693446   -4.84596250390754
H         1.94280308825914   -0.60242984935457   -5.16916010293561
H         2.13420818479661   -2.36346393340970   -2.31399740004936
H         0.89873900980260   -1.37779290059711   -1.50966443915101
H         5.87542462886285   -0.19762776739946   -0.99860683093495
