32
 energy: -49.279431068649 gnorm: 0.130189267603 xtb: 6.4.1 (79825abcba525fcdf90b791dcacef51065a7a4e7)
C         1.85632086859897   -1.12553002189437    1.01049305736654
C         2.37647118469535    0.03651905571402    0.16329920810649
O         1.15833646019834    0.70239620890282   -0.20156777601711
C         1.08208455958675    1.79106710562982   -1.00706866910935
N        -0.09932938130662    2.30015400272324   -1.00819285152502
C         2.10491792778677    2.12617717144453   -2.15137027150415
C         3.54414132846376    2.44090710298427   -1.65790186207875
C         1.33678667386631    3.00981858805673   -3.16337256224635
C         1.05480431404049    1.72135162278849   -3.95731017395203
N         1.91422772616925    0.95628530825424   -3.06723060741392
C         1.92280886837144   -0.44334296497781   -3.19937174052398
N         1.52072947937335   -1.05968920261593   -4.26603961627340
C         2.25656377773235   -1.28215422053304   -1.98020889493460
C         3.15555122494571   -0.64150726012508   -0.97462445059675
N         4.42738464397865   -0.90843632885159   -1.00136499766445
O         5.35417281604821   -0.54071758733646   -0.03535898256135
H         2.50137221781578   -1.99398117035158    0.83593210610892
H         0.84674034497808   -1.30954337800901    0.63209909653445
H         1.83417140241525   -0.95959333335153    2.09315842913939
H         2.98975373878790    0.67875730454844    0.80554867825956
H        -0.74425835963321    1.85130843892374   -0.34312228003851
H         3.33797863208211    3.26334698045517   -0.96062270589559
H         4.15002305768498    2.65491013283703   -2.54649000985123
H         4.01481448090102    1.62383602946654   -1.10462343912233
H         1.97965440781098    3.76810176391632   -3.61542149617553
H         0.45156534306595    3.54748487925867   -2.79923964191860
H         1.48907119261842    1.79717136363373   -4.96367274426529
H         0.01002139528958    1.44295041751658   -4.09918721516598
H         1.10715536535261   -0.49648625089532   -5.00554398198843
H         2.59728426678016   -2.23928239119029   -2.40001873366060
H         1.26137693768066   -1.45568219458737   -1.55975685327557
H         6.15158227679558   -0.94489194908613   -0.42840422243339
