32
 energy: -49.291083885571 gnorm: 0.116030829599 xtb: 6.4.1 (79825abcba525fcdf90b791dcacef51065a7a4e7)
C         1.93297229223296   -1.20124398740880    1.16567053728829
C         2.35198921755337   -0.01345131322065    0.29836137323176
O         1.22384921355152    0.84362244198782    0.06793312179524
C         1.02452061651202    1.75254163757391   -0.91897331096074
N        -0.10198530143617    2.37056605281840   -0.85620532077495
C         1.98180317097810    1.91595835054975   -2.15380852151095
C         3.45474742291260    2.14249297118031   -1.71443706159630
C         1.47764495519387    2.90569393192389   -3.23141900595956
C         1.63491544354803    1.79034437237239   -4.28082810298023
N         1.98670324900439    0.86163441570140   -3.21785122694543
C         1.74072344905805   -0.52216515040501   -3.18488292304616
N         1.47962489175385   -1.18382161937567   -4.26810456999914
C         1.98036725238335   -1.26339398176599   -1.88315124336916
C         2.97045869968129   -0.61199257485902   -0.97474486102115
N         4.25095094136423   -0.75812704598198   -1.14359616685516
O         5.10300413792661   -0.10557447395804   -0.26297053327384
H         2.73807341709452   -1.89741780165171    1.42629355757783
H         1.25788192992163   -1.82356509613956    0.57130938951897
H         1.46315986313301   -0.91342537082685    2.11257423479417
H         3.07892498112298    0.54667943818908    0.89743379541489
H        -0.55869551578779    2.26578971699104    0.06039289197389
H         3.60628010017131    1.77922768441154   -0.68965181595247
H         3.66440402632244    3.21870988325513   -1.73117401801683
H         4.06937708297822    1.59384740913119   -2.43309817845621
H         2.12277935889765    3.78019893499296   -3.33941498746795
H         0.49319267173095    3.35491277556357   -3.04607943698831
H         2.38581222647892    1.88682579104892   -5.07703619531917
H         0.63853464402420    1.61068810768381   -4.68599054121119
H         1.41144385555100   -0.44703131972493   -4.96638762932796
H         2.31683244908066   -2.25313556585897   -2.22319220450829
H         1.01662268392466   -1.40117483026342   -1.38364993068173
H         5.95484316634358   -0.16735313981279   -0.73652833238476
