32
 energy: -49.290590614008 gnorm: 0.129249666952 xtb: 6.4.1 (79825abcba525fcdf90b791dcacef51065a7a4e7)
C         2.07827193462783   -0.97952603112694    1.44093413304661
C         2.47146199564695    0.01261537469303    0.34562193647602
O         1.30389571841588    0.78861464805610    0.03742298490495
C         1.04353977255383    1.61019377851627   -1.00998945608300
N        -0.13236168155360    2.09461592543033   -1.20364005950426
C         2.05395124445569    1.99647488337975   -2.14918588646738
C         3.45874134686652    2.51938979471503   -1.74046258841526
C         1.38477289825102    2.89181121398628   -3.21949873296835
C         1.48279093867364    1.74305747875609   -4.23967294472177
N         2.04460677476342    0.91402313440496   -3.18457023780197
C         1.84408776132963   -0.47593450024764   -3.25017602972706
N         1.45037218840614   -1.07307558891181   -4.33079688974163
C         1.90523102719626   -1.20495932700125   -1.92121440409929
C         2.91119575115584   -0.73681528435046   -0.92187304759991
N         4.17303149401453   -0.87025535093601   -1.20381406326995
O         5.10315120643938   -0.47750841787630   -0.25095091306885
H         2.85067898485374   -1.74419840844471    1.58033880746464
H         1.09852620824877   -1.42719786704295    1.25123972079012
H         2.12810667615806   -0.46865675419365    2.40877656252092
H         3.20862675023757    0.66190147499129    0.83150825451986
H        -0.71688543671179    1.90648798972130   -0.37741100664686
H         3.98944907812499    1.74516489776855   -1.17122298075441
H         3.29293363090830    3.27952735909475   -0.96768995567966
H         4.03965583499677    2.88126982100697   -2.59300969453743
H         1.99665128308898    3.74691684074575   -3.51448981978886
H         0.35551048092493    3.20134706882143   -2.99566607922229
H         2.12476761547106    1.94948183061314   -5.10705804252657
H         0.49342016521072    1.37299731005238   -4.51061320001030
H         1.43360318601399   -0.37173649635640   -5.06764836971207
H         2.27091985375293   -2.19458843831019   -2.22997158374342
H         0.93078738063316   -1.28691577421399   -1.43026488392965
H         5.86891222957339   -1.06850272185716   -0.38526066999304
