32
 energy: -49.288020653698 gnorm: 0.124788015570 xtb: 6.4.1 (79825abcba525fcdf90b791dcacef51065a7a4e7)
C         0.93707170761591   -1.29758560268053    0.28196265589633
C         1.74329942203771   -0.01130936427955    0.09718674830457
O         1.06005257821023    0.78559016005468   -0.88184207450492
C         1.95176789737194    1.75376453281509   -1.20945856158457
N         2.61103408705954    2.50603698888514   -0.40053094921143
C         2.21952754532135    1.86737630114441   -2.75325588648989
C         3.68091702401938    2.26928926155130   -3.09492354790862
C         1.00167550884883    2.53521090571428   -3.43577312659412
C         0.54634547219009    1.13528964052253   -3.88620970373325
N         1.76667065330072    0.56449760929403   -3.33741139176342
C         2.00160889309994   -0.73463955167452   -2.85415072637251
N         1.39316279233881   -1.76935905936543   -3.34249461368787
C         3.07371138417403   -1.04948624850315   -1.82807934457701
C         3.10946019721973   -0.26008080085431   -0.56104813750025
N         4.23990605395877    0.06879735864810   -0.01017813777807
O         4.14318088300130    0.61794453018072    1.26120010824681
H        -0.01802727804993   -0.95631576400047    0.69680116781743
H         1.38731099396863   -1.88403448604009    1.08797632130880
H         0.82227976002468   -1.86195736067694   -0.64996932572272
H         1.82426140611989    0.52342344600847    1.05037918741373
H         2.34979127314301    2.54786936643637    0.59431418190542
H         4.20557236101808    1.34088246587360   -3.35551178462017
H         4.10088025871232    2.81880085072154   -2.24395541637128
H         3.63036938802939    2.87498703099792   -4.00367572978976
H         1.27875773803840    3.10155576533130   -4.32745663429215
H         0.45399597077531    3.25769575809860   -2.81661451034005
H         0.32843651875052    1.13148960205492   -4.96305844546411
H        -0.33473128114661    0.73808708040914   -3.38109431881484
H         0.73131489896625   -1.51126644686758   -4.07081692528968
H         4.11061189731907   -1.05283429213114   -2.19311521928361
H         2.88192224423367   -2.08514295538222   -1.53156487714936
H         4.86787620566271    1.27224056202468    1.28161371460579
