32
 energy: -49.290392382645 gnorm: 0.113842032534 xtb: 6.4.1 (79825abcba525fcdf90b791dcacef51065a7a4e7)
C         2.39368062981551   -0.80884929594995    1.41672164710461
C         2.51231629936830    0.15272546561138    0.23352624192536
O         1.25253012458243    0.80489387924034    0.01446542034908
C         0.90581057984707    1.47685787380336   -1.11163416381208
N        -0.34246879169638    1.55902878293989   -1.41156106785596
C         2.02579476038286    1.93389940155179   -2.11396216677352
C         3.36518572880797    2.45959085627544   -1.52777933799711
C         1.52283406383788    2.94994548325074   -3.16737438314353
C         1.87945094851464    1.91793254219615   -4.25262633128772
N         2.15285608194521    0.93107589219996   -3.21940792106554
C         1.65252738906765   -0.38217316072012   -3.18013503917355
N         1.07208346378731   -0.98433669414003   -4.16999099129418
C         1.77759832664067   -1.11706010426719   -1.85890336137689
C         2.90841853367626   -0.71838938362857   -0.96889530542498
N         4.14219404719677   -1.02498704336731   -1.23967619135423
O         5.03336292743708   -0.53619450058747   -0.29404365336477
H         3.29702432776229   -1.32691276046864    1.75782363992748
H         1.58205910919680   -1.50644500044031    1.19105269901041
H         2.09489702314488   -0.23194912724529    2.29882393208469
H         3.33172717626701    0.85845414545041    0.41124140868616
H        -0.93968831804146    1.09878361652110   -0.71069174351459
H         3.26495043952924    2.75474510788213   -0.47518944987483
H         3.81671989886708    3.21654812952868   -2.18016835838190
H         4.11163809528523    1.66634916841847   -1.43380138926145
H         2.20926910681734    3.79796889150463   -3.11958559358323
H         0.44506467560423    3.14120262885726   -3.08294406757687
H         2.78056959736897    2.02635131726641   -4.87176486817596
H         1.04853557450210    1.71982042873738   -4.93051932125541
H         1.01284608743780   -0.40759298832359   -5.00603252923535
H         1.80447055058936   -2.18783994474939   -2.10615526202480
H         0.88710081311856   -0.92760925220025   -1.25193443693376
H         5.96282879723624   -0.75795757339392   -0.49558188429263
