32
 energy: -49.291414663060 gnorm: 0.126395898728 xtb: 6.4.1 (79825abcba525fcdf90b791dcacef51065a7a4e7)
C         2.51324224950286   -0.58791844775277    1.48301236032228
C         2.60058671281043    0.08021417128207    0.11019716569875
O         1.33620605690451    0.75925950953717    0.08546912604545
C         0.84826937514265    1.48239969576342   -0.95320136858645
N        -0.33560694945534    1.97896485333224   -0.87092441794369
C         1.79952666043637    1.96493864059841   -2.10653510094701
C         3.16082346985475    2.45598807022453   -1.54114015312374
C         1.17480827138073    2.99541871475953   -3.07753157421167
C         1.39654969202543    2.03302467509674   -4.25847465363048
N         1.91927453529165    1.06993747415134   -3.30171007428454
C         2.06229335936009   -0.32472119498242   -3.40643362331553
N         2.21595490354372   -0.86272138207972   -4.57531120501729
C         1.89658555845609   -1.17786741417422   -2.16303620071845
C         2.87057636736811   -0.85653207031877   -1.07772862972255
N         4.02681899493752   -1.44756992455441   -1.13520629258007
O         4.87003755039868   -1.11832839212948   -0.08263634144395
H         3.22305359850660   -1.42190933864933    1.52039156771100
H         1.47515238383341   -0.93239259278439    1.48466484775919
H         2.62692705327012    0.11377863120314    2.31661110233341
H         3.45823919095524    0.76164891140655    0.14409053986759
H        -0.64769217221262    1.55865078666291    0.01544655090261
H         3.18216847843844    2.86729110382485   -0.52355339000621
H         3.49080216448489    3.32578071349460   -2.12170339700904
H         3.94733870339486    1.70095120351193   -1.62218634368675
H         1.65168601531896    3.97471171973294   -3.15622947316186
H         0.12511608561294    3.10224579607255   -2.77416888255757
H         2.15334087240958    2.30473881013518   -5.00716718801963
H         0.50182495946640    1.63130674733973   -4.73523248724640
H         2.30553281859742   -0.24846084301347   -5.38139284218233
H         2.00171316204529   -2.23391409560225   -2.44963465857306
H         0.88006365016794   -0.95747971484031   -1.82332869412697
H         5.70850155928097   -1.60682229341524   -0.19243222884027
