32
 energy: -49.291741597720 gnorm: 0.135169163900 xtb: 6.4.1 (79825abcba525fcdf90b791dcacef51065a7a4e7)
C         2.07032994388894   -0.84301492469646    1.38126115455298
C         2.49906914641619    0.13451544844734    0.28614979922438
O         1.24222627502155    0.74660533199829   -0.03952559923432
C         0.92268299189587    1.61169828538760   -1.03418966502489
N        -0.23225742490801    2.16665391685003   -1.14841089276228
C         1.96333549923760    1.97137269532193   -2.15472063475369
C         3.34338042748953    2.48832099504603   -1.66261246275352
C         1.33707921772287    2.94047315798134   -3.18605170867500
C         1.55865045622584    1.91463455723874   -4.31235515555123
N         2.02524180382528    0.99345768866050   -3.28770771592895
C         1.92749257133369   -0.40825526742865   -3.24144656721469
N         1.51268528222382   -1.05972800384759   -4.28204690677295
C         2.12451275720687   -1.24038042497547   -1.98840807500580
C         3.00084135561322   -0.67633378420148   -0.91896588402762
N         4.19274846707400   -1.18249566578886   -1.03158927992560
O         5.17796339232901   -0.83794227620092   -0.11619016979824
H         2.84030379162127   -1.53534297680691    1.73985884380829
H         1.29417448462696   -1.47766379433873    0.94411215053646
H         1.58104676981233   -0.23712447721128    2.15177308278434
H         3.24525545206284    0.84121298173247    0.66674726168266
H        -0.78054490846586    1.99476904661368   -0.29427330570218
H         3.69512247690960    3.31313444576789   -2.29591248986198
H         4.02888691957505    1.64788566382463   -1.50066134566254
H         3.18815740726091    2.91749200729336   -0.66914709765558
H         1.80153248696398    3.92878862322744   -3.19772387854350
H         0.28009301994422    3.17196629099901   -3.00034834316441
H         2.38814777326943    2.26933658291045   -4.93942983170106
H         0.70068358048835    1.55419100182751   -4.88084522134057
H         1.25787904200671   -0.45604205491052   -5.06034304477375
H         2.55358980857445   -2.19428450595137   -2.32661655905293
H         1.15983371997173   -1.51539686855629   -1.55131652185074
H         5.86900947640243   -1.46525025942945   -0.40366769541761
