32
 energy: -49.289596092186 gnorm: 0.119264822764 xtb: 6.4.1 (79825abcba525fcdf90b791dcacef51065a7a4e7)
C         1.99269051424603   -0.93440115278961    1.30388037168436
C         2.35575461387749    0.04104289340955    0.18345848781955
O         1.09875445389691    0.63250521190415   -0.17778303731669
C         1.08654111227791    1.77600753403423   -0.90723738432216
N         0.02240351566335    2.49640943191227   -0.84772336307919
C         2.02457099122139    2.01533059084207   -2.14446712850147
C         3.53506470770150    2.26737509433955   -1.88214612927355
C         1.34932898061691    2.98083546258133   -3.14788378994499
C         1.01109364730534    1.76465570332868   -4.02907716058561
N         1.72902631935236    0.90272502829680   -3.10288879727096
C         1.91779131342566   -0.47596424524449   -3.30308341379390
N         1.75478835621297   -1.07679719431333   -4.43963991458841
C         2.26236686501771   -1.34360288892260   -2.10733027300956
C         3.00858761433925   -0.76441892410643   -0.95082365656080
N         4.29044057231740   -0.97864793687408   -0.92879261169193
O         5.14491037025169   -0.40655906072995    0.00390063857653
H         2.81601319145968   -1.52694599790711    1.71836865753372
H         1.26070229256421   -1.62744203368398    0.87940031517134
H         1.39115854379239   -0.39277981052372    2.04211847887682
H         3.07101201075401    0.77997165335591    0.56222093251129
H        -0.62916451078500    2.13586483234870   -0.13696229663142
H         3.60001178930749    3.28866136020918   -1.48482400782534
H         4.14907669694634    2.37979067884305   -2.78371746488986
H         4.12444661583694    1.60230204107494   -1.24530850000650
H         1.99937647364522    3.74210655206424   -3.58437562683826
H         0.46056964470488    3.35058664261325   -2.61997703209590
H         1.33303407888177    1.64080924323735   -5.07220629349870
H        -0.06619067779619    1.60903219363270   -4.09576660033789
H         1.63172758692669   -0.43885513095146   -5.22257911566462
H         2.89176062391873   -2.13655393165648   -2.53571938731269
H         1.36465956036654   -1.86324109754180   -1.75892469971682
H         5.97800691103592   -0.84570750260812   -0.25456042936513
