32
 energy: -49.283929128194 gnorm: 0.127771998356 xtb: 6.4.1 (79825abcba525fcdf90b791dcacef51065a7a4e7)
C         2.07284186056151   -0.86931716107212    1.48162998194850
C         2.52366321891201    0.04505102715853    0.34174282935209
O         1.37826605678310    0.88312947908645    0.12712145295830
C         0.99709248535350    1.47191473157679   -1.03386474807329
N        -0.16704778010146    1.99844368118311   -1.18371236763571
C         2.04387432840801    1.89925988328421   -2.12452365782671
C         3.34434546493888    2.58256225986453   -1.61875427847103
C         1.40718282269738    2.95732479338536   -3.05732534589204
C         1.68287006622126    1.94366915229087   -4.18271278535642
N         2.08659669918583    0.90678199521393   -3.24567141959828
C         1.74967382529243   -0.45812669287668   -3.24446104584236
N         1.59324047620817   -1.19657561666891   -4.29781410379326
C         1.82990259210087   -1.19697762273416   -1.92195684952450
C         2.85203752160060   -0.76237725552427   -0.92387382406820
N         4.05796063552885   -1.11356413868785   -1.25845363709048
O         5.09816255023360   -0.70354690385837   -0.43553999557396
H         2.91522618476794   -1.54456837508949    1.66923224694228
H         1.20225611305481   -1.49817445428186    1.27447136970690
H         1.83244305876028   -0.27942472960887    2.37293532919504
H         3.45916467179657    0.59752229886568    0.48555646771173
H        -0.87456988562152    1.92669551591518   -0.43941454238498
H         4.01091190040028    2.01876637357768   -0.95322291361002
H         3.06931043015562    3.52964313360779   -1.13930417032153
H         3.98255346683658    2.77290981091512   -2.48576853837874
H         1.95343367273978    3.89083872955773   -3.20826333097920
H         0.33486048647396    3.06434985140268   -2.84764683903210
H         2.42496666739759    2.07036506047874   -4.98292697980067
H         0.74048161637919    1.70236080677041   -4.67554335245572
H         1.57615068716952   -0.74023732121740   -5.20697366973733
H         2.05611626455121   -2.24958362678850   -2.14393221210741
H         0.82869596870421   -1.07047667334675   -1.49902478908025
H         5.84526487033645   -0.54570995332880   -1.04433301745575
