32
 energy: -49.290010802336 gnorm: 0.125344189635 xtb: 6.4.1 (79825abcba525fcdf90b791dcacef51065a7a4e7)
C         2.05319774238924   -0.51216667217794    1.59698484831444
C         2.35401266359285    0.25737181851509    0.31013881511063
O         1.11895536035426    0.81688334653207   -0.16097986945444
C         0.99899299936147    1.73927616478493   -1.14822394411671
N        -0.07248456795177    2.43975788446091   -1.27538836751335
C         2.07468212027346    1.81792816086436   -2.29042346771640
C         3.46181041765939    2.35321755405214   -1.83956833384255
C         1.65736546780432    2.66915360021937   -3.51363991733012
C         1.80820557611695    1.42415705272581   -4.40651670622624
N         2.07794372399712    0.63768915402910   -3.21283070645378
C         1.73221569475708   -0.71736691734115   -3.06864542776125
N         1.28921262810185   -1.50053205162455   -4.00123940854566
C         1.84383023477153   -1.29265249224335   -1.66938011359192
C         2.88302032166149   -0.60472264970406   -0.84679665749555
N         4.14477247188197   -0.86933313335214   -1.01259548868117
O         4.96566024670715   -0.09184708937196   -0.20700270269764
H         1.24703044705708   -1.22654807957290    1.39567995347001
H         1.83069565977025    0.14632390607689    2.44148393994706
H         2.95593596711096   -1.01471616357699    1.96126166182921
H         3.06431332892298    0.99988572899948    0.69121085510509
H        -0.65055324516590    2.24874292777916   -0.44528928743785
H         3.86445389422673    1.88663155987041   -0.93111670588119
H         3.21738028322061    3.39719135375483   -1.60967383179975
H         4.15197843504541    2.14207127918417   -2.66075085587795
H         2.27582836985774    3.53777391426701   -3.74948504611178
H         0.65505268869530    3.02803128270639   -3.24555310611128
H         2.69172686383279    1.39800823693031   -5.05905662825402
H         0.97183243973528    1.16515129675517   -5.05659644397732
H         1.11945258941940   -0.93732530512919   -4.83135236230355
H         2.21323333490285   -2.29606159856561   -1.92459887396800
H         0.86015936195791   -1.41339833790596   -1.20559053604627
H         5.82320600076889   -0.55449587870766   -0.27238390223713
