32
 energy: -49.286113520691 gnorm: 0.129167127235 xtb: 6.4.1 (79825abcba525fcdf90b791dcacef51065a7a4e7)
C         2.05027446364013   -0.93368401602283    1.41855037385660
C         2.39188099187267    0.00336245151405    0.25928306263032
O         1.17779393698243    0.73109703452896    0.02102381407987
C         1.00453195186215    1.71141807983521   -0.90028027537211
N        -0.00662559418767    2.48977185647912   -0.73707675332332
C         1.91220769466262    1.90034263361310   -2.16848576356806
C         3.39926471943835    2.21072230834890   -1.84251675013808
C         1.33299945089468    2.94418793304846   -3.15332137391117
C         1.37212153150561    1.83317352224474   -4.21826951463802
N         1.57062706326025    0.84207877048625   -3.17208433709791
C         1.99254157440618   -0.49203724236173   -3.30852771452540
N         2.00271473822559   -1.14851575317210   -4.42578476713458
C         1.99349284091033   -1.26729620165543   -2.00456171363563
C         2.93502351986216   -0.72229775190476   -0.98167184397968
N         4.17388797689313   -1.11249894630319   -1.03151476650847
O         5.03135491443441   -0.39729497092547   -0.20655734713760
H         2.94795182402671   -1.47762962176427    1.73330217326227
H         1.22673664110494   -1.57465523570390    1.09107963885152
H         1.80031571348366   -0.28282989458194    2.26359441122659
H         3.14907232354508    0.72835067300257    0.57885026259806
H        -0.56206158397974    2.49263964619951    0.12963958485846
H         4.06672196796623    1.34464018459754   -1.94004204015105
H         3.66699334416901    2.78654924014766   -0.94852370577665
H         3.78104311116977    2.82863849173291   -2.65963376321717
H         1.96218867275941    3.78816577849554   -3.44391188522880
H         0.33399042643436    3.21180244231049   -2.78500348054689
H         2.25953526124498    1.88057121195984   -4.86429761377488
H         0.51427447944550    1.68300032331180   -4.87458812154823
H         1.86088940601465   -0.69607284382140   -5.32594519681220
H         2.35195089906587   -2.26588439363079   -2.29223258539880
H         1.00621358613833   -1.28762709308520   -1.53322845369381
H         5.82351130619036   -0.52074462686736   -0.76418783212460
