32
 energy: -49.280992568126 gnorm: 0.142511043902 xtb: 6.4.1 (79825abcba525fcdf90b791dcacef51065a7a4e7)
C         2.11069921209380   -0.91539697582757    1.43179647540567
C         2.33797370723500    0.03183329941188    0.25291865316552
O         1.06654946328975    0.65054157139455    0.00582968149929
C         0.99691838406041    1.65219825171592   -0.90613836610469
N         0.06799684394679    2.53591036348419   -0.80093724291591
C         1.93808597190528    1.95375193189638   -2.12727794988718
C         3.37192363740868    2.20649791673766   -1.58491367509565
C         1.37693386752195    2.88454170074363   -3.22897441398226
C         1.61205680521391    1.73056112763470   -4.22046024029143
N         2.04444159010295    0.85626366747532   -3.14119009550764
C         1.94602781024482   -0.53599224086301   -3.30980924549499
N         1.89978590132626   -1.05355828743010   -4.49695621894848
C         1.91572773922280   -1.30270145482318   -2.00114825650249
C         2.84368733825192   -0.74567243042179   -0.97235445898891
N         4.09012696076882   -0.93999346543994   -1.28564991939683
O         4.84183635186904   -0.44224154529968   -0.22995249906216
H         2.98525439605039   -1.56139620613880    1.56820903500872
H         1.17527259168032   -1.43875849086932    1.21416031664914
H         2.03473641967395   -0.36613980424816    2.37664360689971
H         3.00854098771690    0.86828245264903    0.48043167639595
H        -0.67615634010829    2.35829354955998   -0.11216813082211
H         3.94095477186925    2.75963509365805   -2.34343292681584
H         3.96032287965031    1.28155384216752   -1.61218359773902
H         3.30531718708847    2.84435844389092   -0.69950252793177
H         1.95399815783702    3.78837040242303   -3.43564083647467
H         0.34187376286069    3.08008162327502   -2.91960514001628
H         2.35385989294346    2.05840220917005   -4.96164198432048
H         0.67172532720124    1.43547432050917   -4.68726658306144
H         2.02510103264039   -0.41031370312780   -5.27518519621856
H         2.22712856102458   -2.32554934264923   -2.25656324021361
H         0.86092631759172   -1.34845992929498   -1.71376551606172
H         5.75949419700341   -0.34530778793486   -0.54965744038777
