32
 energy: -49.286413701585 gnorm: 0.130100844296 xtb: 6.4.1 (79825abcba525fcdf90b791dcacef51065a7a4e7)
C         2.29248048025190   -0.85778148727550    1.44947131411636
C         2.52327648734578    0.08874279059682    0.27071061741736
O         1.44560152150175    1.03324405026193    0.18760531705419
C         0.94170241183268    1.58763172072380   -0.94314234787690
N        -0.24252420075995    2.08920354257358   -0.97384430336842
C         1.86568172771163    1.95016751889033   -2.16082166767523
C         3.18095188332926    2.47291213094296   -1.51993752944847
C         1.27657992536287    2.76908464684383   -3.33441877408296
C         1.87687329216281    1.72382941475623   -4.29206561619515
N         2.22902683419097    0.88918508066194   -3.15385059814432
C         1.86258423622846   -0.46653837222632   -3.21887347214564
N         1.72309072378200   -1.10516760015981   -4.33781276706430
C         1.65975156535211   -1.11839216431200   -1.86414093286981
C         2.81219038089707   -0.72810005256667   -0.99848288114679
N         4.02535277345407   -1.02287095149417   -1.36024737481402
O         5.00849319842918   -0.71413504236164   -0.42995814137396
H         3.21229896478892   -1.42882601113553    1.61862291434840
H         1.48524521667243   -1.52965720284352    1.14410271218347
H         2.00071987415363   -0.36942167728837    2.38572465896824
H         3.38403693037487    0.71456926767484    0.53244045672551
H        -0.85115383643126    1.88388316496077   -0.16940158478015
H         3.95387018544934    1.73760703254821   -1.26103151538384
H         3.07575093441343    3.03277654800035   -0.58294049140260
H         3.58767611982554    3.22627825547000   -2.19984211876810
H         1.61478985987097    3.80746368213893   -3.33630128199530
H         0.20294767790207    2.56931335547260   -3.44711239686017
H         2.85807555415295    1.95813132827946   -4.72732038793593
H         1.23365294195285    1.37166437028960   -5.09919326176946
H         1.71372593105939   -0.54712169358690   -5.18846245211591
H         1.46028556476151   -2.19592373287953   -1.95111281616731
H         0.75035187676859   -0.70501622846742   -1.41759724963427
H         5.82416590503299   -0.75758659160456   -0.96520885038539
