32
 energy: -49.282810217439 gnorm: 0.116186991415 xtb: 6.4.1 (79825abcba525fcdf90b791dcacef51065a7a4e7)
C         1.88395165792265   -1.07472876402602    1.38875428005855
C         2.34362427609425   -0.16483073368385    0.24882513373729
O         1.27589398995024    0.78561010104282    0.11849202455242
C         1.00755738788974    1.72450408366645   -0.82295572533454
N        -0.03367074699996    2.46261926677083   -0.66189814595088
C         1.89815398428922    1.94917428020233   -2.09742578880532
C         3.34734581346064    2.39558601980186   -1.75906266908609
C         1.12771610640812    2.86793387168428   -3.07584425730625
C         1.49707841401457    1.92520094829601   -4.23550982423476
N         1.93548056337210    0.96963579501503   -3.23008678724570
C         2.12496565985335   -0.41457208417912   -3.38679723689554
N         2.04292190388882   -0.98134668037755   -4.54928003723720
C         2.02056440656749   -1.26125596601367   -2.13237247313793
C         2.90502926941227   -0.87515634151130   -0.99287433631666
N         4.16880624287358   -1.11804885580270   -1.17562393561024
O         5.11375532179870   -0.66066740133769   -0.26722179082173
H         2.76507840172464   -1.54884929853886    1.83551544769149
H         1.20487679938663   -1.78403805029962    0.90705581912940
H         1.27809713524625   -0.50284387457851    2.10014577426100
H         3.24515891505455    0.37825216421426    0.55438379906178
H        -0.48811337172772    2.30688036302780    0.24856430870872
H         3.82579286591963    2.94782419527338   -2.57834896695026
H         3.96345102523007    1.51235279113538   -1.55219968649373
H         3.25438608204374    3.03502450632229   -0.87717135652629
H         1.58117030839630    3.85656985360603   -3.17381731257494
H         0.11112999875363    3.02197645562683   -2.69098298154471
H         2.33552556698976    2.34248835384487   -4.80994830561626
H         0.59150214567545    1.56787038976319   -4.72688968792964
H         2.12915709638159   -0.23607047552172   -5.23647338518008
H         2.12947599644598   -2.33282993306485   -2.35212820563895
H         0.95498325101477   -1.12032005465527   -1.92752474222459
H         5.96545516415970   -0.53906776739881   -0.72930861089958
