32
 energy: -49.294931233912 gnorm: 0.127168270449 xtb: 6.4.1 (79825abcba525fcdf90b791dcacef51065a7a4e7)
C         2.14159172322050   -0.88033477314983    1.27064795164112
C         2.43641532523840    0.12810878585186    0.15944479226991
O         1.13870138896389    0.67806155596764   -0.11233268811132
C         1.00391745436132    1.72980196738190   -0.95822023925873
N        -0.05643474420998    2.45794300563713   -0.97754543766669
C         1.97579263881129    1.94489315279405   -2.17358331293762
C         3.42787544165144    2.25850459088169   -1.71857408399652
C         1.41984017526696    2.99210838565497   -3.16819556358008
C         1.22745174144882    1.82971383467727   -4.15906573683711
N         1.77588696898936    0.87773491324182   -3.20558180291026
C         1.88858514248163   -0.52313411985942   -3.24245020892804
N         1.66633124402481   -1.16295414266763   -4.34724177905421
C         2.11696486214991   -1.28672491377960   -1.95166498301361
C         3.07381778046558   -0.70345756101253   -0.96473098318615
N         4.30556920631969   -1.11716513063967   -0.99880319594088
O         5.09072435588150   -0.55984996582597    0.00132290635213
H         3.08883665549589   -1.28416289722327    1.64537458632733
H         1.56830810486820   -1.66746691580078    0.77258709011260
H         1.48664863069523   -0.33821728275148    1.96155175542040
H         3.14268914723069    0.85483067554361    0.57672458510812
H        -0.76191411311794    2.18640252583138   -0.27877564877404
H         4.02058096564182    1.40417954492292   -1.36652650779183
H         3.32136228664638    3.10328362277081   -1.02757321540212
H         3.95408181516825    2.48668116531919   -2.64932522168396
H         2.10547937155069    3.81596485112925   -3.37743215850528
H         0.44891439016367    3.40602738117085   -2.86608826963798
H         1.79776376066149    1.97442036855594   -5.08691604192641
H         0.17125714235845    1.72775526273070   -4.41059125539364
H         1.31051902898933   -0.61658313757484   -5.12825663891992
H         2.49660141986707   -2.21325854803469   -2.40535717196094
H         1.13934000581137   -1.38261832476548   -1.46964546338839
H         6.00559627728299   -0.80807045265541   -0.23340945326124
