32
 energy: -49.289303386146 gnorm: 0.136754256328 xtb: 6.4.1 (79825abcba525fcdf90b791dcacef51065a7a4e7)
C         1.89739239869696   -1.09042815570050    1.26799573218252
C         2.39454663720711   -0.03514454600515    0.27912465978002
O         1.19408796522548    0.67888592967608   -0.05168037497535
C         0.98504218053359    1.69179702066684   -0.92926873619457
N         0.08146401977438    2.59966467789108   -0.80996891426169
C         1.97424998125514    1.93814835717324   -2.12454776051194
C         3.35360976047097    2.48452321191781   -1.66327655655857
C         1.28787891915598    2.84015258470109   -3.17824580207571
C         1.75961572914669    1.84198017575021   -4.25114576516620
N         1.93240930902942    0.87459110735666   -3.17854264311518
C         1.85287521581390   -0.52897505179656   -3.16548165274041
N         1.89554607939378   -1.23135713677577   -4.25367717460619
C         1.83818400789667   -1.33406561218404   -1.87980358961972
C         2.88591554588499   -0.80670598934060   -0.95570537287379
N         4.14685473309376   -0.91485772686877   -1.25212066322865
O         5.10208595302361   -0.28884441388203   -0.46284145316963
H         2.53294261169335   -1.98286135673918    1.28822131808463
H         0.92900080641938   -1.45587337384053    0.91449431137678
H         1.79834881901736   -0.72344784002194    2.29547113791685
H         3.04330514179090    0.71425429327774    0.74665394234107
H        -0.42686825590490    2.50993761702175    0.08068362393912
H         4.00478384701097    2.77342855442864   -2.49850983857557
H         3.75566109593385    1.63150077399310   -1.10364604186640
H         3.20570773856340    3.30667868004382   -0.95798175927455
H         1.60972852976974    3.87969742932148   -3.26978749716285
H         0.19020949543858    2.83061362240276   -3.16020480160603
H         2.73238132012327    2.12047080954663   -4.67924861294284
H         1.12271498555752    1.48604623533874   -5.06162472647760
H         1.76321343264556   -0.64981034660907   -5.07793394725767
H         2.13037933507240   -2.35570535392356   -2.16140477133537
H         0.84742382640878   -1.33233538197306   -1.41538998937654
H         5.96243465950520   -0.67894800589132   -0.71047548607677
