32
 energy: -49.289131644508 gnorm: 0.115849056231 xtb: 6.4.1 (79825abcba525fcdf90b791dcacef51065a7a4e7)
C         2.09778515151220   -0.48135618898319    1.54361603185989
C         2.41413097931239    0.29516592763533    0.26471395159242
O         1.21847766914992    0.94142890155864   -0.19694590353818
C         0.99868607981164    1.88304262711407   -1.14821115838111
N        -0.12926141049973    2.50153460853284   -1.15878154330779
C         2.00303484632612    1.97998278909829   -2.35228720590918
C         3.40442451628286    2.47342006044546   -1.89780217253025
C         1.55393227468597    2.77675211745966   -3.60067093159458
C         1.50799191612787    1.46627612557928   -4.40723169290032
N         1.94276607439029    0.75638377898130   -3.21425181892940
C         1.78267125960678   -0.63474672714079   -3.08927272606852
N         1.54677592360676   -1.38621733989149   -4.11833840967920
C         1.97473793433811   -1.29356976255534   -1.73634357370298
C         2.95515513940236   -0.68278481844359   -0.79001863760878
N         4.16976024289040   -1.13207109426963   -0.90138614359828
O         5.08661194323182   -0.77124597856329    0.07662674624604
H         3.02550883691517   -0.89959469034304    1.95003389799563
H         1.39491988696691   -1.31735260811508    1.48542550037888
H         1.69206582961166    0.12993148130479    2.35719399603750
H         3.06533768749475    1.14068614607552    0.51390307827632
H        -0.68666345382081    2.24555967722366   -0.33204435002202
H         3.91961716140611    2.95806319453461   -2.73732953580256
H         4.02540229590581    1.64472233505834   -1.53707299906985
H         3.24339286338024    3.37530137849902   -1.30119990344475
H         2.31939435543768    3.46923175892412   -3.95726634120216
H         0.59854474334856    3.30297969238245   -3.47571560445828
H         2.24425261738448    1.39205661742982   -5.21933613247320
H         0.55333870682554    1.06925224217497   -4.75395487044509
H         1.30457212339471   -0.84414502668530   -4.94453617542743
H         2.13944837848754   -2.37895387643579   -1.79323711482517
H         0.99593760385231   -1.16618231628453   -1.26410308930923
H         5.78237226570857   -1.45287991866420    0.14730961090314
