32
 energy: -49.292261384543 gnorm: 0.122103828126 xtb: 6.4.1 (79825abcba525fcdf90b791dcacef51065a7a4e7)
C         2.22702697804446   -0.77982604950373    1.46272627292479
C         2.40730030651833    0.00987734668842    0.16560567007097
O         1.17995766095907    0.71687889736804   -0.06709863144085
C         0.96543435165580    1.72737844633836   -0.94614397160485
N        -0.07083740299431    2.45490440193264   -0.71864359975368
C         1.90171840274028    1.97494733270987   -2.18307353538736
C         3.43290391551866    2.17057336124648   -2.00663276569884
C         1.25191068437596    2.97273010919691   -3.17159558583940
C         1.12512316575247    1.81660470409191   -4.18020704378575
N         1.51096798850186    0.88414995696192   -3.13243388029085
C         2.06421070150378   -0.39480048080001   -3.31871990887405
N         2.30787456789322   -0.94857189607420   -4.46471118338235
C         2.00279844974176   -1.28532899476542   -2.09212209965358
C         2.91159825385031   -0.88604797907556   -0.97656637602281
N         4.17766386937941   -1.17851313215907   -0.94387995308259
O         4.93528995448415   -0.53775786212149    0.02707648814932
H         3.26962845026220   -1.05236466835278    1.66140952371690
H         1.73425721687568   -1.75341471282147    1.38790113752307
H         1.75046666854592   -0.13833020076798    2.21210150041582
H         3.18919529014008    0.73786673997026    0.41002642057961
H        -0.45497918444057    2.14017493705712    0.18307423067132
H         3.58189928574682    3.09926500067851   -1.44055782642786
H         3.78468135096171    2.27737035125526   -3.03974742499540
H         3.93253335938103    1.30024647011230   -1.57286222280231
H         1.87457499379848    3.82006517090607   -3.46643957672447
H         0.30463805403941    3.36639449072270   -2.78044658144680
H         1.83807333208939    1.88933827321804   -5.01298183976567
H         0.12368295225202    1.63474015776541   -4.57167920910432
H         2.20771496140793   -0.24810671831763   -5.19575455508171
H         2.35287399273713   -2.27460187607679   -2.41955356323479
H         0.96376437210183   -1.39495266988402   -1.76703820462201
H         5.74706991312189   -1.05529799134306   -0.13684067887614
