32
 energy: -49.295016306374 gnorm: 0.126994338573 xtb: 6.4.1 (79825abcba525fcdf90b791dcacef51065a7a4e7)
C         1.87594294862056   -1.15702254287090    1.22775083854893
C         2.35614417804352   -0.07372767404558    0.26103949233536
O         1.15753435910089    0.55113251989321   -0.22192711764405
C         1.06516210890076    1.68495490770741   -0.96068588086935
N         0.06105436427073    2.48765600267479   -0.91222748943056
C         2.04724234516283    1.98776374429465   -2.14885178715112
C         3.48972334965850    2.36359685165070   -1.71075586464362
C         1.45021863381202    3.00091598779419   -3.15487446906742
C         1.37861320173458    1.85099925299193   -4.17593385305930
N         1.93499737927087    0.92663512025926   -3.20014479591454
C         1.78601277577216   -0.47127629027274   -3.18825008166154
N         1.35260050921204   -1.17796121214819   -4.18428276293404
C         2.19504145804781   -1.31110886644268   -1.99295452342367
C         3.06853982497140   -0.76643396549227   -0.91122587126711
N         4.35345252227347   -0.84418989780312   -1.09144743314347
O         5.15346238017389   -0.18665454143246   -0.16681101773113
H         2.67573859522358   -1.70055183190006    1.74318560560433
H         1.18419009898738   -1.81747961250000    0.69711896107139
H         1.32158870738285   -0.71170336049243    2.06116075655453
H         3.03063725737090    0.64572641174050    0.73907165117055
H        -0.63074786233881    2.21165719326582   -0.20162990385794
H         3.34861083600694    3.27229424230395   -1.11120191361698
H         4.00208477622418    2.71586326834538   -2.61401275341052
H         3.99043905288809    1.52065827841455   -1.22702689185748
H         2.17941789409180    3.80333527921321   -3.28530551849109
H         0.44986516047618    3.36034932407618   -2.88029253869824
H         2.02865585877191    1.95263502400300   -5.05582969274508
H         0.47251556431584    1.52749936342609   -4.68929782167560
H         0.99073544830044   -0.63699113043456   -4.96627564570371
H         2.64152579017085   -2.20245503926989   -2.45618106417367
H         1.26278873112530   -1.66288701543656   -1.54079779529417
H         5.98293010814316   -0.64893436342832   -0.39481097077394
