32
 energy: -49.291557421753 gnorm: 0.132674283661 xtb: 6.4.1 (79825abcba525fcdf90b791dcacef51065a7a4e7)
C         1.98166350766285   -1.15293470448187    1.20314908426380
C         2.26416990203016   -0.02849783643597    0.20591104682140
O         0.99827699012153    0.53722952332814   -0.16535733841613
C         0.99192329268613    1.70335877806823   -0.85814341055908
N         0.23617613204483    2.69141083714033   -0.53025779978649
C         1.91733777813427    1.93635878538042   -2.10603443217010
C         3.36191743619111    2.32085803706081   -1.68261980545284
C         1.30439569556735    2.89679525513377   -3.15334536890165
C         1.55242544749027    1.83825577433242   -4.24328734544192
N         1.93414727527170    0.90635254925542   -3.19351522069604
C         1.91899867041030   -0.49911543742621   -3.22392050689179
N         1.78310590057989   -1.17702158540771   -4.31996215586171
C         2.01152575412632   -1.35644843668056   -1.97581250194655
C         2.93122361746304   -0.66763644854056   -1.02213490548778
N         4.20738552723047   -0.87380898682447   -1.15789250874119
O         5.08144805687283   -0.27684824208192   -0.25957542206638
H         2.89189577652910   -1.74336705483630    1.35689245437840
H         1.31311055724806   -1.86853570246498    0.71606808120151
H         1.60777986776876   -0.70110260591378    2.12848614326044
H         2.82329657121101    0.78672429144180    0.67904961403570
H        -0.24444619071760    2.49219149274037    0.35801492077371
H         4.07286244851193    1.48451339790676   -1.66871100072834
H         3.25501616852884    2.80895018819957   -0.70649633178624
H         3.75096602516104    3.10299896458647   -2.34000260111325
H         1.69302415716862    3.87974644119229   -3.42792762314885
H         0.24084241644299    3.14517360867955   -3.04173334545828
H         2.42341519413813    1.95520340025024   -4.90268259321035
H         0.75552965204015    1.44069296211349   -4.87265891712885
H         1.72066580381440   -0.67659324564709   -5.20358002064060
H         2.43215488639760   -2.30514837626446   -2.33839305597451
H         0.98666005418043   -1.33583108543582   -1.59304109061672
H         5.95946065899097   -0.60894481541110   -0.52885048645647
