32
 energy: -49.292442203831 gnorm: 0.115898926077 xtb: 6.4.1 (79825abcba525fcdf90b791dcacef51065a7a4e7)
C         2.06978832932390   -0.76607494910068    1.46718762855600
C         2.42479952466331    0.06590780959047    0.23413306313352
O         1.16851417061821    0.68066839525956   -0.08865019114103
C         0.94924395499684    1.69788502995354   -0.95873134661685
N        -0.12316444273470    2.40255014998258   -0.86764409772737
C         1.97514866669518    1.85434765395303   -2.13811758852583
C         3.36678982607390    2.21127811682029   -1.54662330028605
C         1.60936932188321    2.88200350061747   -3.23589958791576
C         1.58473924310994    1.73786763105898   -4.26562992692464
N         1.83027654162989    0.79403898271033   -3.18624325546952
C         1.88475393767290   -0.61051907220013   -3.21350246488251
N         1.66922783066255   -1.29328244914062   -4.29364760445363
C         1.85956685025670   -1.29152676347072   -1.85816161141626
C         2.92286401176949   -0.80702888738431   -0.92839390237288
N         4.16019272617421   -0.84118501805696   -1.32510217932876
O         5.08231958514312   -0.18635436350076   -0.51999355843804
H         2.97095869795214   -1.35528117176960    1.67089859748769
H         1.13272141994120   -1.32240749585350    1.37393828925558
H         1.88815832918967   -0.14385834808757    2.35039028699562
H         3.17808327542539    0.82095032817238    0.48621286355708
H        -0.73068851831062    2.13857620967911   -0.07964229502987
H         3.91087732010564    2.85880827860191   -2.24646764392662
H         4.08031678752258    1.39749013726763   -1.37025083895948
H         3.21258729982704    2.78496756097499   -0.62882301175075
H         2.36821210902192    3.64733132841419   -3.41211385922229
H         0.60905812128360    3.33198412315963   -3.18910680560627
H         2.41152626185343    1.80774898813254   -4.98579781626216
H         0.63523859760600    1.63134429735271   -4.79128092354316
H         1.62112201945533   -0.78644513390883   -5.17450490357657
H         1.90817691179300   -2.37733380353018   -2.02273749062458
H         0.85526463905936   -1.08948721657992   -1.47365437812686
H         5.89669309501481   -0.67515462807382   -0.74709135997027
