32
 energy: -49.285388697349 gnorm: 0.122621994960 xtb: 6.4.1 (79825abcba525fcdf90b791dcacef51065a7a4e7)
C         2.04892917676995   -0.52251392925319    1.57085734445533
C         2.27606284295568    0.34017181146207    0.32874808068387
O         1.07550654329487    0.99580925922816   -0.10619628727363
C         1.07868672466094    1.78717191269266   -1.20782479923257
N        -0.00671887318078    2.40333070727196   -1.51951799679015
C         2.17374922204483    1.84769533120525   -2.33258611862102
C         3.55300430384999    2.23915604522357   -1.73396777759170
C         1.77696244104397    2.78922196875741   -3.49494761506331
C         1.39530348409384    1.51347641303720   -4.26748099401182
N         2.02083882702853    0.67722805334724   -3.25477624424617
C         1.73727628228805   -0.68737849184914   -3.07056042383335
N         1.32218445226110   -1.47676464784909   -4.01071952773956
C         1.96715520017280   -1.33155154041883   -1.71647347821337
C         2.83507317957356   -0.62742391303839   -0.72615550978118
N         4.08386503182400   -0.97213401311692   -0.83208137454069
O         5.08917985663044   -0.25867012479427   -0.19362041497662
H         2.98659627748237   -0.95942668584096    1.93232354469121
H         1.40132179509746   -1.35998491218513    1.29600690120618
H         1.54259903819212   -0.08746659089107    2.43950772886409
H         3.05849329757194    1.06839514119372    0.57074643299610
H        -0.71417998738611    2.47583870015751   -0.77523582456041
H         3.98882467959857    2.95180222569330   -2.44622099555959
H         4.26957899824662    1.41111378570129   -1.79180876843788
H         3.44612016401548    2.80723053719200   -0.80600090273935
H         2.48550801712991    3.41163017111013   -4.04557609885830
H         0.91010705531708    3.41388450448301   -3.24265198201801
H         1.86541851300911    1.33740967046405   -5.24477027501890
H         0.33110339253326    1.27570125489253   -4.27968009428624
H         1.25509432422612   -0.90400855400014   -4.84890637945843
H         2.42514521742231   -2.30700417348049   -1.93364251693413
H         0.98100714916943   -1.69184039530292   -1.40826466416957
H         5.88166998465096   -0.76062877520847   -0.46509828400922
