32
 energy: -49.293533848832 gnorm: 0.127210018908 xtb: 6.4.1 (79825abcba525fcdf90b791dcacef51065a7a4e7)
C         2.36237184166631   -0.78907547809418    1.51583379887421
C         2.45400501134623    0.08748087455893    0.26607217267718
O         1.21170886435757    0.73010020411314   -0.05659352967882
C         0.94168441922954    1.66896593013758   -0.99758675933328
N        -0.24754261210936    2.15895332742684   -1.02127245625587
C         1.94164516491839    2.04137377041409   -2.15054115768018
C         3.31415663965672    2.56128691623345   -1.64080341272620
C         1.33698198757876    2.94411573103518   -3.25255557963120
C         1.67480093830833    1.87396144404610   -4.30642761144547
N         2.08249526246969    0.99960676488993   -3.21763657314559
C         1.87232338009322   -0.39026090174114   -3.19334927624752
N         1.69673913230221   -1.09658139430786   -4.26554908132898
C         1.87913229914598   -1.23341187053519   -1.93223675448858
C         2.88589701019771   -0.77886714264596   -0.92743779855471
N         4.09510930286742   -1.18178676523859   -1.18236494144837
O         5.02461188409220   -0.80899320545618   -0.22092282939716
H         3.28955998810838   -1.31490884152813    1.76998251999059
H         1.62695081569301   -1.57515758486109    1.32211604551746
H         2.14341425389102   -0.16949071471790    2.39239650795072
H         3.30407724222783    0.73510557533546    0.50903159930949
H        -0.84842646721489    1.80630586350131   -0.26345127421198
H         3.95195769572411    1.68886445462812   -1.44793691588075
H         3.18454103566122    3.12229413248243   -0.70755662884946
H         3.65345259973324    3.14970670934958   -2.49748058489635
H         1.75969286642612    3.92433969419399   -3.48298348985397
H         0.24995238915211    3.07453751973126   -3.17099924698678
H         2.40121239777334    2.06901399955382   -5.10729143552621
H         0.82538540296613    1.40222413626632   -4.80156884121417
H         1.43298204391527   -0.62123909689389   -5.12554310442575
H         1.98108668280919   -2.24429424036420   -2.35193572657856
H         0.88325735513246   -1.18309769791320   -1.48169230533432
H         5.80332131223716   -1.30217091698565   -0.54355372565403
