32
 energy: -49.288295621852 gnorm: 0.125632672624 xtb: 6.4.1 (79825abcba525fcdf90b791dcacef51065a7a4e7)
C         2.19361644054563   -0.28942690276605    1.67340800219505
C         2.45711577052159    0.38801499594274    0.32793694513997
O         1.26698507068636    1.12034015028510   -0.00018079203216
C         0.93094261979729    1.61536224771715   -1.21750527640305
N        -0.23784401734696    2.06916962647540   -1.50543973405994
C         1.98511979005583    1.93610521520155   -2.33721389625310
C         3.40377613431850    2.38829850674277   -1.89351873861220
C         1.42448804069233    2.77170973033463   -3.51299173458945
C         1.65097610636970    1.54228850781863   -4.41144858674553
N         2.12017228216212    0.77195484204237   -3.27012580267857
C         1.77323374381968   -0.57089434114283   -3.04016067348114
N         1.49837103687058   -1.37073361302254   -4.02201530317760
C         1.82441639718903   -1.11647151635566   -1.62556511850807
C         2.92431469497843   -0.58188640705136   -0.76868151129653
N         4.04858964542893   -1.21755784884000   -0.91515359685734
O         5.13738701573507   -0.80139311970729   -0.16106592594572
H         2.77119271830520   -1.21885615866101    1.73117529734102
H         1.14114768074261   -0.58603843117528    1.69844476689105
H         2.43891835511425    0.33918756900014    2.53646112844047
H         3.32637963338241    1.02835003374127    0.51614215873200
H        -0.92484042605066    1.80263205560940   -0.78661552487844
H         4.03911700471018    1.56471085412206   -1.54258573537891
H         3.34810055979981    3.02131810179584   -0.99983798977852
H         3.89244323051670    2.85133129395378   -2.75494806209389
H         1.98696421228939    3.64549404793409   -3.84876256507159
H         0.37015372433769    3.07750831664256   -3.50030331163430
H         2.47774284934663    1.53308791119475   -5.13496367407797
H         0.71687879577897    1.14642246895947   -4.81139854786091
H         1.66472047770931   -0.94645224325377   -4.93164215343657
H         1.83714513187203   -2.20936470356328   -1.50788954943755
H         0.92200794331932   -0.87372293196867   -1.05633684535033
H         5.93904068433872   -1.30092262174409   -0.40910824739952
