32
 energy: -49.289847060312 gnorm: 0.124464275769 xtb: 6.4.1 (79825abcba525fcdf90b791dcacef51065a7a4e7)
C         1.02986917875464   -0.47320283210307    1.02995920662582
C         1.99026461577199    0.37768977470737    0.19792906000399
O         1.29756934121452    1.06525389519717   -0.85459234703810
C         1.92133716887436    2.08214840251779   -1.50010732255078
N         2.44465089231794    3.13747021084042   -0.98305004649835
C         2.04171352376541    2.03276087740600   -3.06566900369488
C         3.21676177783179    2.91247778794488   -3.57487401618740
C         0.66979867467283    2.33084788259212   -3.71681429030963
C         0.55597860481254    0.80063467700876   -3.84127569016567
N         1.97045375938320    0.61859214230682   -3.55440072841364
C         2.44687826880944   -0.52753964020757   -2.89417666213872
N         2.14412940899456   -1.72694597487683   -3.28030932034362
C         3.50112409746861   -0.47452948616837   -1.80463074322676
C         3.10434497082813   -0.51823428326424   -0.36572032677261
N         3.72907515613342   -1.42754064958340    0.32159366997555
O         3.64098333726816   -1.52342102748140    1.70375422031140
H         0.22165988685067    0.12285746923635    1.46845665586851
H         1.60246226220868   -1.06827206876756    1.74712410632137
H         0.58013010948093   -1.16934305387930    0.31350024144403
H         2.54612812698678    1.08341810237432    0.82564962783179
H         2.35865108365238    3.24695894599947    0.03691604768590
H         2.76691119819306    3.87081939200338   -3.86526073991985
H         3.71362388578331    2.51018992102561   -4.46581249433309
H         3.87658305727957    3.10915546699906   -2.72563368431508
H         0.69190152826384    2.89098941023274   -4.65403009520869
H        -0.04618505065506    2.80124091558887   -3.03023412256570
H         0.10586393065950    0.51467238143164   -4.80186109196139
H        -0.14744870782826    0.46281875522332   -3.07951582538458
H         1.47800818269068   -1.75377318655889   -4.04886031374731
H         4.05771806259207    0.46326152579015   -1.94310909006012
H         4.15496318752538   -1.33004322083284   -1.99925704789869
H         4.10786723321277   -2.37420197880480    1.81281623724774
