32
 energy: -49.281296395582 gnorm: 0.145239573350 xtb: 6.4.1 (79825abcba525fcdf90b791dcacef51065a7a4e7)
C         2.19050284801090   -1.00954251425769    1.33719490652051
C         2.43986318254856    0.07368512054110    0.28691440736788
O         1.15571133336856    0.62256727757764   -0.04483080711828
C         0.84475713631947    1.56685152959131   -0.96759027674561
N        -0.27122519683862    2.20347501017367   -1.03242511648095
C         1.87033104001691    1.94536080193140   -2.09579319222355
C         3.17461331535534    2.57664081172957   -1.53520129727379
C         1.37944844019377    2.93976681199769   -3.17523163169150
C         1.89662321529064    1.92125735245589   -4.20730083214020
N         2.12974387366984    0.93122887885857   -3.16726474012864
C         1.78922618437303   -0.43268823513326   -3.15077135862148
N         1.51444475470798   -1.09818499431092   -4.22824066444491
C         1.90154578309433   -1.16790107842939   -1.82857579891243
C         2.99253985025412   -0.62959062593753   -0.96268847918812
N         4.15568651126360   -1.11678497607168   -1.27774077660770
O         5.24089768744397   -0.73480772730932   -0.50073942312284
H         3.16628244040640   -1.45509294436946    1.56104567021124
H         1.52189874829325   -1.80509973581840    0.99608935467877
H         1.79798152684290   -0.48764168918477    2.21681779848181
H         3.16124671779522    0.83311495776213    0.60931470308026
H        -0.86576946497681    1.82394296325302   -0.28263372816856
H         3.80124873505366    1.76454621519763   -1.14412708820814
H         2.82094045309898    3.37600119372974   -0.87307038388723
H         3.94806486045007    3.01001051425781   -2.17490338825718
H         1.87870211376448    3.91093487860613   -3.16112895745499
H         0.29844002038825    3.07341925849140   -3.31253581872554
H         2.85611559156962    2.18916072409089   -4.67066261355991
H         1.26158233778214    1.58690062919746   -5.02835889249918
H         1.42218177896170   -0.49939911470381   -5.04558443288117
H         1.85233010108349   -2.22120829639526   -2.13929562867428
H         0.94553616445414   -0.95602762897351   -1.34026854085246
H         6.02933545486053   -0.98087798288887   -1.02181392746558
