32
 energy: -49.290480880525 gnorm: 0.121974649239 xtb: 6.4.1 (79825abcba525fcdf90b791dcacef51065a7a4e7)
C         2.32581162579887   -0.31051790224320    1.69104784843786
C         2.38954197614441    0.26651521996826    0.27626058237423
O         1.17469007715124    0.96721236156696   -0.02956756160996
C         0.99424098616952    1.70347049419630   -1.15438416963044
N        -0.06029337588320    2.43735084582466   -1.21985564515345
C         1.99577820752678    1.87835989714172   -2.35198587019353
C         3.42437430068165    2.30300163236916   -1.91298406818931
C         1.46598282742605    2.71905557090103   -3.53838547697211
C         1.67266722462112    1.48980447566310   -4.44183520268833
N         2.00596103678010    0.69479055169501   -3.27006526542764
C         1.68499354931500   -0.66494768971148   -3.11326604191640
N         1.44958620434618   -1.37971181934699   -4.16826674961331
C         1.84560377330921   -1.36080360666873   -1.77485519962211
C         2.80177805928988   -0.73614135295090   -0.81291195617132
N         4.06077076713337   -1.05204517229931   -0.88123883788119
O         4.91650363880969   -0.48391927575174    0.05271792325590
H         3.35680396725724   -0.39508002509952    2.05253671204095
H         1.79958361271548   -1.26863577457652    1.72832987171220
H         1.93302128007373    0.41167405251745    2.41516414344456
H         3.30178265994901    0.87383637797502    0.26934790509351
H        -0.71964747768354    2.32311012478520   -0.43760516546001
H         4.19430600237473    1.55146127905983   -1.69503709739739
H         3.30757362512260    3.04222040468075   -1.11149042021651
H         3.88709773425721    2.92538199647702   -2.68355857921607
H         2.18942755129538    3.50543576532830   -3.76389480178991
H         0.44330122159130    3.09945813798804   -3.41709720806550
H         2.49907938452398    1.51993945769796   -5.16518629314612
H         0.76375204081457    1.26355705478108   -5.00030898383695
H         1.41199863389063   -0.92187711616740   -5.07605657976901
H         2.11490879025192   -2.37407599973774   -2.10527757460114
H         0.84615581942032   -1.43359462321039   -1.33543061515652
H         5.67860858047144   -1.08462075861849    0.16252278843673
