32
 energy: -49.262821714231 gnorm: 0.115978317543 xtb: 6.4.1 (79825abcba525fcdf90b791dcacef51065a7a4e7)
C         1.28997852441862   -0.98625334474321    0.67282188272770
C         2.25078213958565    0.12477787974192    0.24724252515533
O         1.61781912350936    1.39296708685259    0.02046872104207
C         1.23616420145797    2.09812731351991   -1.07357828843410
N         0.29752529117340    2.97619111784578   -1.12715558773227
C         2.08161277541752    1.83448240159241   -2.37112251839079
C         3.61384193348167    1.70173823589229   -2.15070749367607
C         1.61169658704077    2.59766659512513   -3.63275838160739
C         0.59115648142243    1.45112702320039   -3.75083889055461
N         1.37607535121907    0.60789527325423   -2.86256006576145
C         1.92793889937873   -0.66776727370849   -3.07380851798223
N         1.65061183719816   -1.45269630422542   -4.06693841562553
C         2.80499542459985   -1.32336340912671   -2.02389412393211
C         3.15480874504957   -0.51458461958094   -0.81835919321574
N         4.43584170924494   -0.59379632477577   -0.61291710264745
O         4.87336458311775    0.11029231704816    0.50070488488971
H         1.24327854868260   -1.18448272176550    1.74952721584217
H         1.59376776110721   -1.91856591961728    0.18825910495955
H         0.30249615970245   -0.65301411375533    0.33515329363014
H         2.96903873847562    0.35311015887287    1.04288167022195
H        -0.31701242148889    3.14287963874851   -0.31828420662749
H         3.73198544001017    1.51500921677396   -1.07540148592546
H         4.14977966911089    2.61770450208708   -2.42685129615292
H         4.04402070693873    0.85477884702099   -2.69187418183484
H         2.39799193481296    2.42961360620950   -4.37175659300648
H         1.32249257482429    3.65000497014849   -3.51342856092852
H         0.33895173964945    1.06449109129567   -4.74783808595069
H        -0.36972366510856    1.74577855419746   -3.32763977324480
H         1.12607127033887   -0.88314010734131   -4.72691626401738
H         3.76716088312630   -1.48616327278086   -2.53001556715081
H         2.31689020696521   -2.27438896939889   -1.79024400000650
H         5.83954238293225   -0.02862818263425    0.53078604524846
