32
 energy: -49.280685238084 gnorm: 0.137012117844 xtb: 6.4.1 (79825abcba525fcdf90b791dcacef51065a7a4e7)
C         1.95219303650203   -0.57919118506527    1.63599046074694
C         2.37732071204887    0.16996710396400    0.37239238408548
O         1.23709755240183    0.89319129453426   -0.11465009981413
C         1.13140752539477    1.75988209142304   -1.15269006606086
N         0.12773579602829    2.54498969435238   -1.32920834044009
C         2.13231258247152    1.84146027054438   -2.36076580326490
C         3.59093318379376    2.31331789110414   -2.10836476620170
C         1.52194819769255    2.74253827785398   -3.46099765829121
C         1.30399630249850    1.47299146735383   -4.30405516871614
N         1.94756816176813    0.67000719125625   -3.27584886977432
C         1.72208755114042   -0.69362640498776   -3.01864059403357
N         1.49012962144801   -1.45141840281260   -4.04395891762229
C         1.87028580937344   -1.27214074189524   -1.62411089031002
C         2.94632062547616   -0.66454808485135   -0.78578683579607
N         4.22502331870451   -0.82281459333386   -0.95724393767524
O         5.03733416541902   -0.33959005715384    0.05959732078199
H         2.85169681902837   -1.05103574779032    2.04711795006699
H         1.37377736613653   -1.41599917656382    1.23414045195913
H         1.36274460945644   -0.09147303874594    2.42012784551357
H         3.20559490022228    0.87030498046994    0.52910408991205
H        -0.51045760429803    2.46328430361046   -0.52562387091315
H         4.13209605258818    1.86779813301413   -1.26351951398992
H         3.34561305934399    3.34670589032765   -1.83558986753477
H         4.18567879294640    2.15122077954659   -3.01128090516014
H         2.24419291181035    3.45341862724832   -3.86797706093402
H         0.63104615941107    3.34476098494014   -3.23982806119923
H         1.87906532093667    1.44612446324912   -5.23983065519401
H         0.29843833506367    1.16482538022660   -4.59231634365753
H         1.54031548391788   -0.93549072382299   -4.91940613367483
H         1.92586249896874   -2.34864597308137   -1.83968638341809
H         0.86432310482340   -1.24548135826936   -1.19444006681462
H         5.92980798672846   -0.51311304335334   -0.29689051093753
