32
 energy: -49.290357459277 gnorm: 0.135339394812 xtb: 6.4.1 (79825abcba525fcdf90b791dcacef51065a7a4e7)
C         2.36198238708386   -0.71440588247637    1.52787000704924
C         2.56963491901877    0.10162447195624    0.25130168849410
O         1.28722330476851    0.71422477862215    0.05002134075651
C         0.98078293499828    1.48772729580433   -1.02125753889549
N        -0.22091929458775    1.73115239642516   -1.41057175517922
C         1.92281770965166    2.08359981604083   -2.12824414113034
C         3.32236065830720    2.52085911196808   -1.61442139773871
C         1.31984045847529    3.00550823513028   -3.21521225272443
C         1.50524231462753    1.91433797979111   -4.28524576824101
N         2.09901629401954    1.09522222526330   -3.23994268570067
C         1.83517735855413   -0.28278950283228   -3.32920013041538
N         1.53522916121231   -0.94220998271980   -4.40368910736281
C         1.98279732878259   -1.06025464275757   -2.03493935289669
C         2.99193043289501   -0.68216592040449   -1.00125358339828
N         4.14698501213501   -1.27732645294219   -1.03530162886093
O         4.88003715823320   -1.03511151137135    0.11851269245660
H         3.29813021863244   -1.19818450832500    1.82846214810419
H         1.55321365721858   -1.42908808319845    1.35061814552747
H         2.15330590449237    0.02602629617715    2.30787269965497
H         3.36630417067738    0.83826130164133    0.40542536157261
H        -0.98197119247177    1.37265183811973   -0.81728266905066
H         3.86710206562528    2.97206971978045   -2.45392982947886
H         3.98330491849166    1.66928164496870   -1.41330611876898
H         3.22213649300773    3.26166101397410   -0.81666014168776
H         1.95976395218426    3.88360705726026   -3.32503443620211
H         0.30109542748575    3.29493259498059   -2.92592567066048
H         2.28002262841364    2.13930295599344   -5.03103943933832
H         0.59230219642964    1.56808237386441   -4.77089488722900
H         1.39852727500929   -0.33497613271974   -5.20847942930969
H         2.11649497631965   -2.12122573155494   -2.28967521008033
H         1.01727219885066   -0.97555552013435   -1.52712443642865
H         5.63541852263035   -1.64613641907049    0.01976615179936
