32
 energy: -49.284416987702 gnorm: 0.136040973735 xtb: 6.4.1 (79825abcba525fcdf90b791dcacef51065a7a4e7)
C         2.08603182289416   -1.09945917804243    1.20381664929827
C         2.28948749327626   -0.04951557967156    0.11071278749798
O         1.04001456405415    0.46193164756370   -0.37674146840595
C         1.10467429168876    1.68343753155196   -0.96290941549568
N         0.08337248396728    2.44128361186918   -0.76920457514116
C         2.08716667642331    2.03640633914786   -2.13680666035681
C         3.53981559160528    2.33022198470713   -1.67053045558111
C         1.45950280244399    3.01617025703651   -3.15714834262642
C         1.03981715449020    1.82533556180183   -4.03792912642392
N         1.89826599635935    1.00037323838333   -3.20205865952382
C         1.90219765956780   -0.40187487845960   -3.30294952734357
N         1.53082876100625   -1.05201919328650   -4.36064909978124
C         2.26770591389162   -1.31110982770732   -2.14491230240556
C         3.06774660893662   -0.73410493948858   -1.02383814184288
N         4.34187256930535   -0.98767847068259   -0.98106031049145
O         4.98846511841593   -0.30828881267397    0.04249662023436
H         2.89917920866192   -0.93580140217520    1.91990157936099
H         2.21325668384580   -2.14246234227547    0.90008326554307
H         1.14653978041506   -0.97598805717371    1.75363432276419
H         2.77818160884188    0.80937759737711    0.58458029929217
H        -0.58499412537521    2.23002934120498   -0.01529987502690
H         3.45372465779122    3.10196628894205   -0.89457446017429
H         3.96646608411397    2.81551005381138   -2.55650094961006
H         4.09384946775966    1.40118324498707   -1.51182048005116
H         2.17211139743878    3.69095996173032   -3.63617692493160
H         0.64085727276294    3.54880672891259   -2.65573781190384
H         1.38809444616006    1.88715777334559   -5.07811320425730
H        -0.00814974141438    1.54322054503341   -4.14462576784048
H         1.19451073063992   -0.38261625343669   -5.04905138906084
H         2.65810245968258   -2.24240448243888   -2.57931521047142
H         1.31863292389113   -1.62834646540912   -1.70229497654457
H         5.80269309046373   -0.84368994063182    0.10638531837315
