32
 energy: -49.287223767553 gnorm: 0.129465567001 xtb: 6.4.1 (79825abcba525fcdf90b791dcacef51065a7a4e7)
C         2.05520728902399   -1.09724839466832    1.37576776340241
C         2.49119624031791   -0.06837486818593    0.33174443286282
O         1.38994053122051    0.84416921276948    0.20979502712467
C         1.07848767624847    1.54490338801058   -0.90905217075611
N        -0.08803327446505    2.08566004642451   -0.95053370216257
C         1.95654070881888    1.89210485095909   -2.16459466539110
C         3.36879793359839    2.38046229991011   -1.73919306468374
C         1.34501137743150    2.92463930195970   -3.14178496651200
C         1.75336325580825    1.98010034090012   -4.28681465983426
N         1.91325499015119    0.92006441762869   -3.30348605454090
C         1.84833325053898   -0.48431265918333   -3.30558339288352
N         1.47204348092092   -1.14296041560188   -4.35625937417183
C         1.86823623170882   -1.22470715772156   -1.98165946537027
C         2.86860399169586   -0.62174737594948   -1.05133109133272
N         4.13755622941571   -0.83255453112673   -1.23800462811192
O         5.03846837270109   -0.40862441071801   -0.27055355244172
H         2.83950019949611   -1.83363903894873    1.58405509323215
H         1.21532845093878   -1.68716212011504    0.99774518812314
H         1.87787212618683   -0.58954184707380    2.33021849136241
H         3.37610599412481    0.37540768629109    0.80191632928988
H        -0.63462155181467    2.00731097857295   -0.08173150045789
H         3.30697493300718    3.43187053865303   -1.42963329040834
H         4.08618195336836    2.37398585620202   -2.56852838911342
H         3.71480337802011    1.77942744831669   -0.89403467067398
H         1.69800206495296    3.95552556790352   -3.06904148746819
H         0.26884209253159    2.88795443416434   -2.92775570690038
H         2.69849348632857    2.40637062565308   -4.65030394696062
H         0.95925123689603    1.84237780967614   -5.02140724949643
H         1.42867152561769   -0.57505085052319   -5.19929283830330
H         2.05117194911440   -2.29458753695604   -2.15577317288014
H         0.84430637870038   -1.15137561516415   -1.60287342611838
H         5.90320051868073   -0.66854078039807   -0.64255505773341
