32
 energy: -49.292236892910 gnorm: 0.122301457180 xtb: 6.4.1 (79825abcba525fcdf90b791dcacef51065a7a4e7)
C         2.11104778854980   -1.01043755304237    1.33594114954023
C         2.42170435131037    0.02865821717708    0.25778332181752
O         1.27471656883568    0.88648887138617    0.16334768664212
C         0.98937101287135    1.67833369785827   -0.90032990039425
N        -0.11262751305179    2.33955106548038   -0.84288040009556
C         1.93072662989307    1.93365433367382   -2.13182245909334
C         3.27807195192602    2.44541257652407   -1.55156900775937
C         1.33518718101011    2.86521563443641   -3.21465333756443
C         1.56905221713711    1.79038611894835   -4.29170800693213
N         1.98100317706613    0.90157805993850   -3.21630421334758
C         1.99482512930776   -0.50421290129256   -3.22371581443669
N         1.88104137529952   -1.22781623067735   -4.29272580063170
C         1.79762553176258   -1.22197259977605   -1.90186557671225
C         2.87953097958183   -0.72850786235023   -0.99866005579392
N         4.10415156668916   -0.97885150025687   -1.35525356413097
O         5.06575079732109   -0.47526908584065   -0.48977525956933
H         2.87701271557898   -1.79096964947856    1.26638870514280
H         1.14033923918512   -1.37587085618794    0.98884008138625
H         2.02653631982234   -0.64522211827228    2.36534164837990
H         3.24479585407123    0.69101284673342    0.54911915435904
H        -0.65862837681559    1.98751840164773   -0.04433756997181
H         3.16692567919961    2.94124509765608   -0.57847844978453
H         3.75482586722893    3.25291845465501   -2.12000441742759
H         4.03688130834625    1.66015985209268   -1.49825966049089
H         1.90815589330646    3.78061041423776   -3.37707189468800
H         0.33490974411297    3.01379424357564   -2.78726115028860
H         2.36633395443406    2.12124655766477   -4.97139556155850
H         0.70422529946645    1.41886598984615   -4.84239382230168
H         1.94093087111327   -0.81803497278121   -5.22202682019626
H         1.93282728079428   -2.30052248164063   -2.06580378091020
H         0.81016839392455   -1.02189525902724   -1.47503284618555
H         5.91406311906086   -0.72438152522014   -0.90451918181969
