32
 energy: -49.287501103005 gnorm: 0.122479292739 xtb: 6.4.1 (79825abcba525fcdf90b791dcacef51065a7a4e7)
C         2.03191088973847   -1.01399355671718    1.25532608704690
C         2.43515220045655    0.04108549113212    0.22437679998018
O         1.26009331805666    0.84253873653762    0.03129191857455
C         0.96120186620437    1.63143885695703   -1.03085251073522
N        -0.27574588238582    1.92228793849430   -1.23154293913041
C         2.06461598776807    2.00556844821774   -2.08461587612873
C         3.37291513303469    2.37322795723852   -1.33154896220237
C         1.49380566231342    2.99895594444271   -3.12497793926439
C         1.68560142674846    1.87710203753344   -4.16163424424808
N         2.17459911229152    0.95585970986173   -3.14754819089974
C         1.73109813257744   -0.37815846352897   -3.16156882439066
N         1.14987692032900   -0.97133652349725   -4.15638164447453
C         2.02213701784764   -1.26440421492042   -1.96523295321070
C         3.00062438437533   -0.60463216964300   -1.05031747657035
N         4.20290834264154   -1.00782388213030   -1.33575773568071
O         5.13485074403027   -0.44517119997051   -0.47423214952555
H         2.89011928787323   -1.69534429650500    1.25221565278079
H         1.13514403142043   -1.58529565340073    0.99896922366813
H         1.99200437689010   -0.57093392463651    2.25647318685897
H         3.19383195949183    0.69994904885256    0.66183954816421
H        -0.88996739850094    1.52435594327066   -0.50759774966318
H         3.99345833273705    3.09025254895731   -1.88464070748644
H         3.96338135703037    1.45009835073117   -1.29080312717044
H         3.11598423950042    2.71675048854659   -0.32594757654138
H         2.03669781788160    3.93128417718148   -3.29424901292890
H         0.44663740734585    3.14952129497355   -2.83161238859313
H         2.44084403443870    2.23420024687837   -4.87521075920615
H         0.86571221547273    1.55213564206623   -4.80302818868032
H         1.08631499107288   -0.36385220382362   -4.97003421268059
H         2.54658614601704   -2.08379407069961   -2.47707127329188
H         1.09317003430138   -1.63599838159080   -1.52225798925145
H         6.00316967863526   -0.86308856627486   -0.63256920923764
