32
 energy: -49.292049220957 gnorm: 0.119828926435 xtb: 6.4.1 (79825abcba525fcdf90b791dcacef51065a7a4e7)
C         2.17366193773546   -0.83787955974348    1.40170377979391
C         2.38769010430915    0.05397948428183    0.17800806422326
O         1.12376994153089    0.68518130038267   -0.07588677860585
C         0.93707373242008    1.63741107822635   -1.02364904425350
N        -0.06321109659386    2.44056318851316   -0.92728227846892
C         2.04078328412419    1.91593582813388   -2.10631341969776
C         3.47278564092879    2.28704843288993   -1.63136641816156
C         1.43152214032546    2.90030642286385   -3.13335372678968
C         1.49762726430148    1.76295438156360   -4.16875632852965
N         2.00854016645398    0.84986650774911   -3.15810543297412
C         1.83528180823417   -0.54292683926748   -3.23936084971211
N         1.58229434595881   -1.20102260256764   -4.32666861894774
C         1.90690447426902   -1.32624618994042   -1.94219636427906
C         2.92599862454689   -0.75961577647164   -1.00935975735028
N         4.17797011135682   -1.03161144870225   -1.22870468867576
O         4.96770417716200   -0.38015325374783   -0.29102491881561
H         3.01910587773822   -1.33555888975538    1.88987382008131
H         1.42800773507534   -1.60166478305790    1.16310856342121
H         1.79955995338354   -0.23519282668548    2.23657280959358
H         3.16179918426861    0.79621578670565    0.40364106045632
H        -0.72458377802602    2.12636430670086   -0.20369411756331
H         4.17327547029008    1.53893398159919   -1.23798699359353
H         3.39243922240678    3.03173997658847   -0.83045580308855
H         3.99040041248687    2.92925381160532   -2.34893353338852
H         2.05243198869349    3.73472406025190   -3.46627819174753
H         0.43675677115888    3.28157008365855   -2.86807178852937
H         2.21889859888574    1.95745954198010   -4.97438489012567
H         0.60667408092078    1.39075839543933   -4.67558987783991
H         1.59508040140811   -0.58223109439237   -5.13415942968775
H         2.21302046314245   -2.30346364938242   -2.34190142280107
H         0.88351651530689   -1.31773971230538   -1.55503561238020
H         5.86064719188073   -0.32046657262216   -0.68191313319915
