32
 energy: -49.287125108585 gnorm: 0.132604335011 xtb: 6.4.1 (79825abcba525fcdf90b791dcacef51065a7a4e7)
C         2.27085200686310   -0.62682920234892    1.52503024545787
C         2.42815672953583    0.06688636094635    0.17127039160851
O         1.14520007588268    0.69252227661600    0.01969726137062
C         0.87609261831548    1.62266814472151   -0.93017649957125
N        -0.24786275723118    2.24847381403641   -0.92909183411863
C         1.86620944039871    1.93785143081190   -2.10841294432600
C         3.27904835771700    2.33494447230915   -1.59838030926375
C         1.30228290677801    2.96547338986627   -3.11884669584827
C         1.44440492579235    1.88258270633568   -4.20381084289199
N         1.86678714188264    0.91514693018087   -3.20289228208721
C         1.95345605870645   -0.48743303713200   -3.24475086785503
N         2.12716998732410   -1.07373882899831   -4.38729183555780
C         1.82343816090977   -1.28370318407181   -1.96007039986393
C         2.88016486780625   -0.74160354454312   -1.05493853978916
N         4.08041114567234   -1.18931752136238   -1.27513731434061
O         5.16382846467338   -0.78990272507223   -0.50442611841352
H         3.18921942837553   -1.13061168162141    1.84686040589015
H         1.54900810075179   -1.44636523064015    1.46504854389864
H         2.02350155013066    0.09809400193124    2.30828881429328
H         3.24571365929194    0.78180412061771    0.31811419842091
H        -0.77938159728741    1.98174187173180   -0.08882022147561
H         3.22973381694410    3.08227811118627   -0.79577883539221
H         3.91444471820735    2.91517411317994   -2.27814782791676
H         3.87272306843495    1.46211205028863   -1.31382931795078
H         2.04751573478375    3.75662769841741   -3.22525829425721
H         0.37644353431015    3.51434726822324   -2.90238990251916
H         2.26807799756102    2.04064441317884   -4.91351581122048
H         0.44463416505110    1.64329977432717   -4.56769238778560
H         2.24393531722994   -0.46165882703489   -5.19155034342752
H         1.94757349986537   -2.35441800500123   -2.17590661890491
H         0.80110466029669   -1.11277993193287   -1.60948777717903
H         5.89617366327505   -1.26060752936762   -0.94693128264372
