32
 energy: -49.261177898290 gnorm: 0.111879340497 xtb: 6.4.1 (79825abcba525fcdf90b791dcacef51065a7a4e7)
C         0.91708136318427   -0.46705942978020    0.81486537743539
C         2.31864408245835   -0.00541167019992    0.41342414586749
O         2.15872147860652    1.38667834293950    0.10216439877840
C         1.40187333023642    1.77728382167107   -0.95351479749119
N         0.31766922337907    2.41748311277331   -0.68978023555009
C         2.05511833740488    1.82625463342840   -2.38137534970783
C         3.39912732412487    2.60232939275104   -2.30872683941422
C         1.02801215949649    2.39742257678714   -3.38825989110995
C         1.62207860579047    1.40230119309594   -4.40157948223638
N         2.19334658990047    0.64836531882353   -3.29640516243036
C         1.85946297737488   -0.69043189171484   -3.02689088093581
N         1.15127701976249   -1.41574246690266   -3.83418765453710
C         2.34983286927000   -1.47527117966703   -1.82484291515171
C         3.03952957028672   -0.80933561212112   -0.68000439480221
N         4.33512646052090   -0.90756835618146   -0.71613507294652
O         5.12305351441496   -0.14002437346730    0.13084083964614
H         0.42887960143090    0.48150698116320    1.06516711991427
H         1.05104056039865   -0.99586468997164    1.76287152702010
H         0.34405679300207   -1.09087751194470    0.12011094701867
H         2.94541007182477    0.00287555052492    1.31240442485235
H         0.25879595155783    2.49523958857521    0.33501362597997
H         3.69002979075498    3.05871157183115   -1.35363539018625
H         3.30993432942636    3.46272162603680   -2.98270657005244
H         4.24786614012273    2.01612437485864   -2.67102708636169
H         0.94663799828682    3.48027365152539   -3.50415780513328
H         0.04069930822642    1.97159782168997   -3.16649144698656
H         2.49729451951979    1.84518927704483   -4.89650294032794
H         0.95349782277487    0.85791384586338   -5.06929935273095
H         0.91679887266409   -0.90721016917529   -4.68361259035264
H         3.08509633623860   -2.16239196776071   -2.26719767176226
H         1.43979108353241   -2.04543669401363   -1.61502409803939
H         6.02566066510337   -0.44201647167230   -0.08780139411582
