32
 energy: -49.288218999366 gnorm: 0.120266013378 xtb: 6.4.1 (79825abcba525fcdf90b791dcacef51065a7a4e7)
C         2.18790056762797   -1.07068305714044    1.36128154151572
C         2.40495517167371   -0.06119259803770    0.23324425463600
O         1.19204282170831    0.67585164756773    0.01881036359270
C         0.95027083737869    1.72128894234179   -0.81092302198714
N        -0.12781940445122    2.42108926864797   -0.75697363437316
C         1.84845361903251    2.00277905631400   -2.06867655879489
C         3.29703961573121    2.43142022452363   -1.70564026046428
C         1.20801856715572    2.97538273886838   -3.08793188563034
C         1.52573027905225    1.95763897527596   -4.19845203510302
N         1.83875044543727    0.98248713571212   -3.16536251769544
C         1.94187604563284   -0.40930969927582   -3.33495284326802
N         2.00083225612218   -1.02990763538667   -4.47104845207924
C         1.95534927182712   -1.25550271502554   -2.07593316370279
C         2.90297023372570   -0.81802510174004   -1.00802170846843
N         4.13577834996752   -1.20878388223328   -1.13847538254560
O         5.15552511065677   -0.61501396950239   -0.40712399552317
H         3.21194874772045   -1.37180048154825    1.60911976786098
H         1.52576290256800   -1.87769026029567    1.03477148129359
H         1.78786677360384   -0.62461770060695    2.27844485796717
H         3.14330029036005    0.61379599358164    0.68080064578142
H        -0.76352583383754    2.22689284613109    0.02907958884441
H         4.04968912272842    2.01648632881081   -2.38861698281602
H         3.64300925934803    2.17669635671070   -0.69673015004195
H         3.37908620908626    3.49829997770895   -1.92989753305801
H         1.65697431262976    3.97088946351633   -3.08286896364986
H         0.12238792490211    3.01112308736539   -2.92848481641700
H         2.41470142641269    2.19347701474537   -4.79946176400862
H         0.78804845674129    1.75045395638653   -4.97440793968320
H         1.96341399620263   -0.39224385994567   -5.26294023998434
H         2.00935121511797   -2.31182544311984   -2.37541799521750
H         0.96845309442002   -1.03208694739386   -1.65950782673828
H         5.84650121287118   -1.30493059169597   -0.39068004280756
