32
 energy: -49.284808800725 gnorm: 0.134754911755 xtb: 6.4.1 (79825abcba525fcdf90b791dcacef51065a7a4e7)
C         2.20833512229571   -1.01975578428289    1.26344726974910
C         2.41944693262768   -0.04192449062299    0.10675821004685
O         1.12736922606601    0.51293524335275   -0.18140558029846
C         0.95965988495569    1.66140054774179   -0.88336807638753
N         0.00994860099737    2.49642303740521   -0.64736909939353
C         1.86310419178558    1.98738746278684   -2.12652288035681
C         3.32471762020713    2.26847200733999   -1.68086870665635
C         1.31133740665468    3.03736261084834   -3.12055607442607
C         1.18490807075828    1.92053916678049   -4.17256325933505
N         1.71109909254006    0.96471736930339   -3.21042793997703
C         2.09276747282536   -0.37668167392566   -3.38783157356192
N         2.04160348575563   -0.95381989063734   -4.54697979026879
C         2.01817306061165   -1.24005569060728   -2.14269074841630
C         2.97862881510949   -0.86984284846868   -1.06089861602969
N         4.25316101802132   -1.11610667776421   -0.99420360499544
O         4.95513562878642   -0.60789450372569    0.09035761965474
H         3.04676152313775   -1.72448128042947    1.22919366970717
H         1.25383815420131   -1.50419293450154    1.03860972426079
H         2.12772999571840   -0.62511049597288    2.28224450055240
H         3.12795148999166    0.75059168123945    0.37323381764196
H        -0.50759538076276    2.26898425172474    0.21294154954466
H         3.58451117921834    3.27973515955876   -2.01993030185874
H         4.07301213845051    1.56065256599543   -2.05706785998236
H         3.48851368465909    2.41523486978780   -0.60994066326942
H         1.99757769187043    3.82157785255262   -3.44720765307508
H         0.34205908861317    3.42636192061399   -2.78221644560993
H         1.94268086001914    2.18926634979627   -4.92134097796439
H         0.25835823078206    1.73810232179503   -4.71793455884066
H         1.85651914126140   -0.37454911821215   -5.36263717758127
H         2.34164141026829   -2.26551618910767   -2.37121663209363
H         0.98172410681064   -1.26991436037581   -1.79316143583014
H         5.88675488312488   -0.87210825209761   -0.03605433743801
