32
 energy: -49.286458090014 gnorm: 0.117887252605 xtb: 6.4.1 (79825abcba525fcdf90b791dcacef51065a7a4e7)
C         2.40710134335371   -0.63873477229137    1.48474168800690
C         2.49317333524633    0.18080218754057    0.19648605792372
O         1.28583036422039    0.93858961987387    0.02780411276269
C         0.88191248345638    1.68223881071179   -1.03223669193810
N        -0.31213995185575    2.10474677571178   -1.25725974596998
C         1.90458884828669    2.11089445349789   -2.14502612120647
C         3.31826801853525    2.52070254509617   -1.64753391094084
C         1.31056148057968    3.06295373305841   -3.21072353876545
C         1.33586356893446    1.82828421404550   -4.12993465944355
N         2.01228574415276    0.99982298581527   -3.14389118677571
C         1.99140930066572   -0.40460961387298   -3.20411939892150
N         2.05670163420419   -0.99928488484725   -4.35365369305595
C         1.89059636387116   -1.26312250572290   -1.95746505987748
C         2.85873186193892   -0.82087019134515   -0.91011910700438
N         4.00354750505751   -1.39075014643554   -1.14284296598800
O         5.02510372245503   -1.17926429377830   -0.22686390539812
H         3.36219905790094   -1.16265215155280    1.60335490090644
H         1.60990645218136   -1.38587362007641    1.43414945977175
H         2.26987566441837   -0.00410935208683    2.36713024865003
H         3.38162360264094    0.81077086979533    0.31840979484326
H        -1.08390906621325    1.79968955489376   -0.64813980588326
H         4.01927295669530    1.67590933437804   -1.65254609054721
H         3.15666115038918    2.95174462200086   -0.65226268814718
H         3.79567421241729    3.30272041258516   -2.24401252992221
H         1.88268806438719    3.96709595930572   -3.42939802875869
H         0.34688493755146    3.36658586157943   -2.78127077074567
H         1.76874689370294    1.92078151993923   -5.13549830614518
H         0.35060900021907    1.37366692498689   -4.23858195994059
H         2.08619638958678   -0.48348778471499   -5.23011887908351
H         2.12094633089307   -2.31665563683580   -2.17061268319575
H         0.83010439506346   -1.18771003711541   -1.69870175023428
H         5.79179604273455   -1.65890445119716   -0.59541719544321
