32
 energy: -49.295239533966 gnorm: 0.123126173095 xtb: 6.4.1 (79825abcba525fcdf90b791dcacef51065a7a4e7)
C         0.91267785022240   -1.34473146317529    0.20020797731431
C         1.86120775611136   -0.14631697961843    0.14780989623607
O         1.16082843643077    0.82000601645496   -0.64972454826410
C         1.83737478192273    1.89866357988337   -1.11730690094500
N         1.92454078435201    3.01808193005507   -0.48944206134426
C         2.18552470507557    1.86069960614445   -2.64873217006471
C         3.67040355827328    2.30006137918984   -2.77532615876603
C         1.16472985564064    2.52534507150011   -3.60331096947460
C         0.71072893837428    1.12709412829579   -4.06023062161283
N         1.83464870838423    0.57018154362652   -3.32346104256042
C         1.92975609630377   -0.70365568378255   -2.73627493461387
N         1.09273480974274   -1.67403901484293   -2.92884293902540
C         3.12515249946727   -1.15538918614089   -1.91876714163324
C         3.16779755663532   -0.46163318787516   -0.59714274070139
N         4.36578293215385   -0.10652774726390   -0.23901202679906
O         4.45878665011175    0.49681472589185    1.00784369404885
H        -0.06551311717319   -1.09071430248134    0.62375003542924
H         1.36765887513697   -2.22931588558565    0.65495889761010
H         0.69174450147767   -1.55365103679679   -0.85228000767044
H         2.02949378609397    0.25353664912963    1.15422269902536
H         1.60055900067469    2.88202356089261    0.47815212800606
H         4.30708556998044    1.91170273058452   -1.96976908432431
H         3.73549797794978    3.39107535486551   -2.68627513745159
H         3.99726951064023    1.98300996853736   -3.76925393707826
H         1.65435511587303    3.06229225639836   -4.41852588508645
H         0.41251281207909    3.23304169658983   -3.23098096866849
H         0.85407038421698    0.82817990853272   -5.10770639554825
H        -0.26027486680896    0.83278645294213   -3.66055290743492
H         0.24974370431499   -1.44989154916059   -3.45251433404603
H         4.09581633185049   -0.92114579951770   -2.37851364420808
H         2.93312667337860   -2.22735464907103   -1.81244286745084
H         5.22836204785236    1.08788253518862    0.89786244321304
