32
 energy: -49.291364725670 gnorm: 0.130556903243 xtb: 6.4.1 (79825abcba525fcdf90b791dcacef51065a7a4e7)
C         2.26105886387029   -0.33223409331675    1.63264414613280
C         2.50641060455142    0.31100720512858    0.26710580067397
O         1.28296407430417    1.00407890148254   -0.02134299451709
C         0.97144113616886    1.71995401457715   -1.13054388383626
N        -0.12126442131678    2.39873764637461   -1.11801565795610
C         1.91425361739260    1.92630974704928   -2.37007399786254
C         3.40260094808028    2.21453976224204   -2.02996271518982
C         1.42345111180481    2.82534504535579   -3.53017952531909
C         1.60481200651313    1.60310045643461   -4.44845208414037
N         1.78417177977583    0.74779818232694   -3.28549689817957
C         1.85451139252540   -0.64487565029398   -3.10659428381284
N         1.95958898952735   -1.46566279861326   -4.10388964141895
C         1.76251353754282   -1.21003527173062   -1.70178621718448
C         2.86398636371995   -0.70455425521212   -0.82940235955369
N         4.05193590651476   -1.22540124979135   -0.91319219966495
O         4.86467872978216   -0.64020391868343    0.04822041346201
H         3.19573701811694   -0.83042613273030    1.91362742696467
H         1.44658418905086   -1.06204719038935    1.61533572828329
H         1.99718022306244    0.42611969143861    2.37793435162236
H         3.30302635292663    1.05103048919434    0.40436005397054
H        -0.71788632221461    2.19256004628835   -0.30484427769668
H         3.79586081167900    2.48796553814526   -3.01773478095537
H         4.00263410134709    1.39231689694312   -1.62205508991907
H         3.40082439174992    2.93544551479199   -1.20804598141930
H         2.08627395440342    3.68392028038622   -3.65720306799323
H         0.39591657015936    3.16045841231828   -3.33739356382748
H         2.41072418241410    1.74014090079557   -5.18250075153860
H         0.72723726520328    1.50716134463501   -5.08865980455218
H         1.93845142046862   -0.98777244672128   -5.00182162012398
H         1.81569654388894   -2.29819040473093   -1.84846637063199
H         0.72564326567296   -1.01049203332736   -1.41478228947767
H         5.60056356902901   -1.27815126683744    0.12033149612983
