32
 energy: -49.291468137692 gnorm: 0.116741611922 xtb: 6.4.1 (79825abcba525fcdf90b791dcacef51065a7a4e7)
C         2.08002676880590   -1.00363302085866    1.35934390336422
C         2.37544228743896   -0.04219466787216    0.20738133056178
O         1.15660135510283    0.69808893248420    0.04373705713578
C         1.00767253826059    1.67819923940521   -0.88203521269222
N        -0.05004541110014    2.41035127480719   -0.87225155392992
C         2.01495013059019    1.91332729821025   -2.06441398587014
C         3.38536183222593    2.48782158974099   -1.61069815275187
C         1.35088340921706    2.90204972504085   -3.05256364942837
C         1.38371509467754    1.80146241893260   -4.12849476630587
N         2.16187322462414    0.97268132141304   -3.22087781701861
C         1.96147938252632   -0.41417113241026   -3.33479357168721
N         1.75706562030964   -1.00075792747867   -4.47209820277929
C         1.96642098686440   -1.27938482699176   -2.08870547322773
C         2.89609739931215   -0.80551647660809   -1.02054931973805
N         4.15021014477950   -1.09426347438795   -1.20317686547143
O         5.08216899404884   -0.60978752558706   -0.29540113783892
H         3.01869771963958   -1.44220344319047    1.71616737803328
H         1.33122169532943   -1.74069729954888    1.05549699570419
H         1.57797198420833   -0.47842705747416    2.17927656908255
H         3.12588704286774    0.68266187433889    0.54276990180441
H        -0.74876486482717    2.30104613843495   -0.12421539821953
H         3.22672989819323    3.49022954713847   -1.19222137042094
H         4.04352978157886    2.55601466262330   -2.48513712374839
H         3.90571187305613    1.84713227090883   -0.89375436356261
H         1.95536419931222    3.75156746156363   -3.37743766080429
H         0.30062630199594    3.13918999152044   -2.83804294621608
H         2.00304926540566    2.03853818975545   -5.00446408394275
H         0.49839617319593    1.25653936411088   -4.45785316102361
H         1.74886573897635   -0.37990610468846   -5.27806569515703
H         2.02267344208378   -2.29869016336468   -2.49647669770867
H         0.94436051536931   -1.22562866852470   -1.70167654662387
H         6.02807594956915   -0.78730342668802   -0.46108594802043
