32
 energy: -49.293432025814 gnorm: 0.117263208308 xtb: 6.4.1 (79825abcba525fcdf90b791dcacef51065a7a4e7)
C         2.02403589593190   -1.02487645956768    1.27893255565775
C         2.48214532874942   -0.02770543653843    0.21383278916324
O         1.26628846139317    0.68294028912854   -0.06374102176706
C         0.96381666563816    1.72803849117922   -0.87376008621409
N        -0.10642136043481    2.42823224491491   -0.73509187377442
C         1.85658086623068    2.00367340513693   -2.13665772110969
C         3.25852657698663    2.45932938521268   -1.64588704479423
C         1.17491226484011    2.91966997879219   -3.18129861529875
C         1.54780245965332    1.87052338857598   -4.24442722271192
N         1.91829425127564    0.93992714887704   -3.18948497018202
C         1.83831950711462   -0.46317361854842   -3.22698810723651
N         1.79447850172492   -1.08016565715249   -4.36572849163510
C         1.97022153293743   -1.25211510711844   -1.93798543974097
C         3.03842158912986   -0.74862796110168   -1.02406182675383
N         4.28427673927259   -1.03151973730661   -1.26352711780256
O         5.21586821556756   -0.63889531591033   -0.31205226090018
H         2.79098105444619   -1.13236728465492    2.05418155404779
H         1.84138303421958   -2.04212976767165    0.92098092218920
H         1.11911272927629   -0.58824707020049    1.71557741053728
H         3.23672223216799    0.68349249920988    0.56862995933713
H        -0.61050710477030    2.23522986839813    0.14147086312203
H         3.26385767498680    2.88156785658567   -0.63257817163645
H         3.77406569598622    2.98537152773067   -2.45827731017654
H         3.83238714207908    1.53122255249728   -1.57838046090078
H         1.67038170652610    3.88424905680577   -3.31059582652228
H         0.12394541405377    3.09367841835666   -2.91580968641204
H         2.31928644079336    2.22995397207450   -4.93921070997272
H         0.73588726165900    1.53726421217819   -4.89168273856365
H         1.86126025274887   -0.48386179199395   -5.18735475549203
H         2.15187161554131   -2.32380973370638   -2.10199445434366
H         1.06308621091320   -1.24420059028734   -1.32615900759976
H         6.08756438231155   -0.93083462423418   -0.64162858858353
