32
 energy: -49.286104111739 gnorm: 0.125098997737 xtb: 6.4.1 (79825abcba525fcdf90b791dcacef51065a7a4e7)
C         2.14075333254900   -1.00289902389407    1.41507870697080
C         2.49648386582118    0.04683749900825    0.36143700933986
O         1.31165394533092    0.81410399933382    0.10095157132760
C         1.04608232477883    1.62455274521399   -0.95379715071987
N        -0.18408148518153    1.89859814478069   -1.21168419419773
C         2.01774378710692    1.99053397896115   -2.13271389707931
C         3.50578215436356    2.32437655143161   -1.83569378238627
C         1.45818395591748    2.99874930715257   -3.16489171506166
C         1.56599440079422    1.89320102660366   -4.23078946263740
N         1.94688167962503    0.94097043757982   -3.19911195448641
C         1.67189956226118   -0.43773059346945   -3.19120463679613
N         1.35222138704552   -1.11040379626824   -4.25169862216183
C         1.85423043769428   -1.05678721600141   -1.81829566401676
C         2.97603095584922   -0.65941936016914   -0.91637028000761
N         4.21942515397081   -0.90403883710950   -1.20560824938314
O         5.17977663867501   -0.41026760197150   -0.33311985008435
H         2.96555437417950   -1.33748496558456    2.05423881856481
H         1.80063260382012   -1.91860313119278    0.92304251884070
H         1.26518357325129   -0.63415585791973    1.96060227519556
H         3.18683791441613    0.70211141072167    0.90466552532803
H        -0.87031370338815    1.48813635640375   -0.56336247735302
H         3.97276646021610    1.58501614139936   -1.17208210095270
H         3.54963747669587    3.25959155624703   -1.26479233145986
H         3.86685954925926    2.41281823274074   -2.86382634334691
H         2.06884900428589    3.88090982697863   -3.36861100305747
H         0.45242886793616    3.39978291068249   -2.98344371169603
H         2.32312507341561    1.95944034727238   -5.02417932407773
H         0.66438592007022    1.58408127370650   -4.76065246520014
H         1.36866557766057   -0.66031246716006   -5.16397884264615
H         1.95373373985390   -2.13828085580962   -1.98828298278091
H         0.90702144512379   -0.97196196643033   -1.27710390844937
H         5.95963186861932   -0.99390631706709   -0.40308407388774
