32
 energy: -49.283261336568 gnorm: 0.125292366098 xtb: 6.4.1 (79825abcba525fcdf90b791dcacef51065a7a4e7)
C         2.27077380934402   -1.02527815201445    1.25788823804394
C         2.48710881734057    0.01878751614230    0.16163194649180
O         1.27775497839503    0.78144923908470    0.03442003249918
C         0.94757105312131    1.59337088916132   -1.00076697140623
N        -0.23090493655103    2.09761549389481   -1.10958478023143
C         2.03972953214184    1.92498827574219   -2.08018010879118
C         3.34551855905671    2.51227012601350   -1.47690154706186
C         1.44290204361511    2.90465463310578   -3.11895206815912
C         1.63241753367892    1.82103393170057   -4.19591453538596
N         2.11048308705483    0.90338092912701   -3.17339656819302
C         1.72729307408243   -0.44923404208875   -3.16378504273792
N         1.22415312742286   -0.92679665730871   -4.25836945285937
C         1.95623378739251   -1.42193446706443   -2.02238470119496
C         2.91870556237025   -0.78129183785534   -1.07738093133085
N         4.20499457809044   -0.95788737437998   -1.13903332965885
O         5.05554132710758   -0.38200281867560   -0.20509102886283
H         3.19473490981748   -1.31923636262464    1.76843168992971
H         1.60367536754734   -1.76224042954394    0.80164049199677
H         1.70158712756841   -0.51280977886287    2.04120974227513
H         3.34864565912073    0.66799170355335    0.35491420523053
H        -0.89593218845428    1.76156427751457   -0.39928701265723
H         3.05966398884701    3.26608048099716   -0.73180710149803
H         3.89622265028970    2.95324281254181   -2.31639362783085
H         4.04867257792816    1.82986017238986   -0.99198254278843
H         2.04786902075025    3.80737975576831   -3.22722415731636
H         0.42476986818275    3.26837744354322   -2.92814531520884
H         2.32070718190638    2.03098140589773   -5.02614425838943
H         0.72802249233430    1.50801491741137   -4.71869209879802
H         1.36126913310423   -0.29595938993412   -5.04472266058606
H         2.31650180467453   -2.34295649209321   -2.50233310524003
H         0.95673169367412   -1.72623365727053   -1.69729044268982
H         5.93913711833630   -0.64513657344898   -0.52715069412714
