32
 energy: -49.291390820060 gnorm: 0.121550139298 xtb: 6.4.1 (79825abcba525fcdf90b791dcacef51065a7a4e7)
C         2.08617582179561   -1.15262158343162    1.34650755200895
C         2.42750548789392   -0.11114901880022    0.27998012168702
O         1.31046429488096    0.75402250148579    0.02686021266973
C         1.12283789785355    1.76578348222034   -0.85687410975939
N         0.22149708701717    2.63598450137703   -0.56490746838809
C         1.88146914213733    1.97514295562260   -2.21649176258485
C         3.27802237382277    2.56353505689148   -1.87390777150110
C         1.15731841868949    2.86680357559484   -3.25357587445666
C         1.37303275053134    1.71537612979624   -4.25241533425994
N         1.95217970292626    0.86724084267308   -3.22215709531786
C         1.96914132904140   -0.53701569907671   -3.28750295599998
N         1.92936814794328   -1.03688558243805   -4.48244189773177
C         1.91925254765021   -1.33640735947987   -1.99915564599483
C         2.90059014369612   -0.80036636494890   -1.00948721033389
N         4.18344027805100   -0.92790322974283   -1.17548818707556
O         4.91404113540352   -0.54222920734828   -0.05978259924105
H         2.92698690847930   -1.84862566778325    1.44338475664515
H         1.20204010182634   -1.75118314235534    1.10918115329457
H         2.03804663932328   -0.65765800441435    2.32266559519852
H         3.26432405949333    0.48374701773543    0.66325968493551
H        -0.31801763268164    2.39844115923956    0.27901883951253
H         3.11742788923633    3.44481536015198   -1.23935039661331
H         3.81845596734921    2.99090639716275   -2.72699869424584
H         3.91566340030608    1.82579657011207   -1.37952814591898
H         1.55101206302489    3.87009932140078   -3.42971073771435
H         0.08974391335318    2.96706467212548   -3.01793416501314
H         2.05496264535821    1.90229695627241   -5.09332805207736
H         0.48492797051664    1.25500419536417   -4.68662180424050
H         2.01858394098336   -0.45935773884033   -5.31527438440605
H         2.10857876267869   -2.37721162384223   -2.29799867659890
H         0.89029840691233   -1.20520093645088   -1.65083542792188
H         5.86107035968608   -0.63231646020568   -0.28051605500205
