32
 energy: -49.296976634120 gnorm: 0.115816180897 xtb: 6.4.1 (79825abcba525fcdf90b791dcacef51065a7a4e7)
C         1.99899399330375   -0.54236183588842    1.49217295135027
C         2.44818930916705    0.23923522589519    0.25686674320724
O         1.22488016919307    0.86548864216276   -0.15749290816058
C         1.08011328569936    1.74260389346297   -1.18197411573350
N        -0.01753413192822    2.38838841415534   -1.36374904875610
C         2.13433305891118    1.83967127422153   -2.34262548550667
C         3.52780328810689    2.28593842470410   -1.82011582237581
C         1.65301113352447    2.76791797394775   -3.48353902015092
C         1.53229275027665    1.52781855505633   -4.38773955429549
N         1.92254254202222    0.68253594315488   -3.26998327888206
C         1.70818360570458   -0.69337474745809   -3.07655568032137
N         1.15872886331302   -1.47591438821519   -3.95123394992056
C         1.94645751220260   -1.30904207470495   -1.71071015686654
C         2.99178622216092   -0.65387496707738   -0.86937135087522
N         4.24831770754673   -0.98644009919672   -0.86192122602058
O         5.04337619641594   -0.24455552826319    0.00110270446528
H         2.84130534002324   -1.13873733267961    1.86043648072530
H         1.11367836969972   -1.12673361539095    1.22567415692979
H         1.65895935935378    0.19439847404777    2.22821003354252
H         3.16275712057023    1.02415011025936    0.52957778985323
H        -0.68538536596872    2.09551176764147   -0.63717311106643
H         4.18475920045255    2.51810571417268   -2.66841759900561
H         4.08298294334061    1.61915064828852   -1.14955749884163
H         3.35789481158951    3.26449039677720   -1.36314479323745
H         2.36521487723570    3.57066196016272   -3.68599508747841
H         0.72872928579847    3.30348780686243   -3.23023553846451
H         2.26572064613710    1.52328846814667   -5.20576459887145
H         0.52562685986884    1.34605560483407   -4.76562007273313
H         0.98867960113540   -0.93348394014291   -4.79501133936533
H         1.99707443222009   -2.38099953172646   -1.94897519077930
H         1.01208071908113   -1.19370218840487   -1.15310326439655
H         5.94128280654112   -0.62647035491483   -0.03899851664744
