32
 energy: -49.297688109414 gnorm: 0.117773713030 xtb: 6.4.1 (79825abcba525fcdf90b791dcacef51065a7a4e7)
C         1.91380338098184   -1.09725452618141    1.20949485779154
C         2.27115442127855   -0.09856684133938    0.10787108502786
O         1.04524077790695    0.56649705153468   -0.23153756922035
C         0.99385941893198    1.62718806370400   -1.07542432531910
N        -0.02590160077146    2.41040700480982   -1.03586222675859
C         2.12156407565559    1.99987694833839   -2.10367437707561
C         3.53124294577872    2.28498854713606   -1.51592711788585
C         1.58658719285203    2.98823392343451   -3.16760417850321
C         1.23812462817018    1.80276349018792   -4.08588071479207
N         1.97384090456430    0.95173551020834   -3.16357402076097
C         1.87491334997812   -0.44701111161944   -3.26464544045480
N         1.27881584165707   -1.02660481037276   -4.25866242722870
C         2.29197972205051   -1.35589275819836   -2.12388057288188
C         3.09072349593881   -0.72900226073506   -1.02897249442438
N         4.38759175150846   -0.81284398704599   -1.05406651230551
O         5.08979379998973   -0.18961629849284   -0.03141283461074
H         2.73572360043665   -1.77863566076953    1.45634918633650
H         1.03815939967912   -1.68914743816367    0.92805902398124
H         1.67572947439836   -0.55709346019353    2.13239069329365
H         2.95963269615023    0.60952193413043    0.58292664820727
H        -0.75528553728462    2.15182029560952   -0.35700541289228
H         4.18277577239377    1.53419053409804   -1.98166947442421
H         3.53385098203368    2.09320559882107   -0.43625524284461
H         3.73785835946730    3.32542460338414   -1.78061232187109
H         2.46208431149413    3.52566809298496   -3.53813062370054
H         0.73611447797532    3.60959897780466   -2.85793297059986
H         1.69053007596391    1.89190587348014   -5.08311936399616
H         0.18508663388757    1.53684827777410   -4.18389988610803
H         0.86232917837666   -0.40410153106688   -4.94723801847869
H         2.89737059349897   -2.18628267063228   -2.51423883107855
H         1.37950404624111   -1.67716144890204   -1.61254576401697
H         6.01615832162817   -0.46314028114441   -0.17541535767982
