32
 energy: -49.292382931145 gnorm: 0.124904407128 xtb: 6.4.1 (79825abcba525fcdf90b791dcacef51065a7a4e7)
C         2.16943091961081   -0.89712668625595    1.39084152285465
C         2.44389919828784    0.06079502703168    0.23079628051277
O         1.18526786411391    0.66780782298709   -0.09746447061086
C         0.97707782485855    1.63568850973950   -1.02467222073853
N        -0.21004875740188    2.12996616424468   -1.06113701403874
C         2.02934763988748    2.03776512957032   -2.11964965804502
C         3.42190347911094    2.36486749675950   -1.51324859348321
C         1.48829170998963    2.95378193852849   -3.24355716355432
C         1.29555113020540    1.75912400275737   -4.19520919509632
N         1.96572389211401    0.97279951481315   -3.17112962586171
C         1.85204457452077   -0.42666890396923   -3.24225888448672
N         1.52987411799705   -1.03869806709171   -4.33814089130915
C         2.00546538105747   -1.25025044128237   -1.97753353680517
C         2.97733356678521   -0.75265431049537   -0.95886904560408
N         4.22933895154956   -1.03149442927040   -1.16924285661098
O         5.15198592692156   -0.40063513048575   -0.34579879532826
H         2.80421449949631   -1.79022962168635    1.40452048795366
H         1.14012167141655   -1.26307659497405    1.44468265314335
H         2.46067910762964   -0.32226646967098    2.27678740985984
H         3.20040760051599    0.80407810124750    0.50701203942502
H        -0.87648821450473    1.77576120167719   -0.36105710442736
H         3.26925762461186    2.68493578938670   -0.47432407652762
H         3.96075587686746    3.08260320002111   -2.14330605734095
H         4.05759437462247    1.49196611936379   -1.34238128954744
H         2.30039044546311    3.60861973254473   -3.56651790869951
H         0.57960505888462    3.51904510588531   -2.99848421845526
H         1.83851195335530    1.79459381585424   -5.14969199288258
H         0.22295158679087    1.57231442472229   -4.25717754350745
H         1.51773460357103   -0.44120349489467   -5.16152457438438
H         2.13173392806478   -2.29101127806706   -2.30813634608874
H         1.03034865782084   -1.20257482388027   -1.48340487584016
H         6.00073123821650   -0.87723805766608   -0.42443955363610
