32
 energy: -49.286686075507 gnorm: 0.135498207992 xtb: 6.4.1 (79825abcba525fcdf90b791dcacef51065a7a4e7)
C         2.23510662739270   -0.85403945255218    1.38511242439406
C         2.38443687335903    0.06952183034149    0.17540714782225
O         1.09201782341261    0.62316373993538   -0.11356715315653
C         0.94654055873477    1.64444553340854   -0.99428856846715
N        -0.03562162130480    2.44574046151558   -0.77475839134658
C         2.00714850668857    1.84847127271464   -2.13507656202560
C         3.33647599299974    2.45927237547582   -1.61187448265508
C         1.36972866673884    2.85233098295706   -3.12550982660407
C         1.35263916237059    1.77301025504071   -4.22313126200997
N         1.84152126103656    0.83439710938193   -3.22504492895199
C         1.98492385380011   -0.56097686543852   -3.31917973043996
N         1.86900603949770   -1.14356292446188   -4.47091208042620
C         1.97717311022218   -1.31285719240512   -2.00161736118362
C         2.93619606703647   -0.70302465397601   -1.03301719093972
N         4.18024049228808   -1.05567161079882   -1.16538049149711
O         5.01493069437410   -0.54740083730553   -0.17934088219540
H         3.16930782832454   -1.37687085672436    1.61896195513983
H         1.45558107083531   -1.59048649177383    1.16998129829289
H         2.07269666884936   -0.19361641413389    2.24398046296069
H         3.04822745897391    0.90981588569327    0.40855475526913
H        -0.59881198064536    2.15251029664904    0.03551765942554
H         3.10074788958244    3.10445455903907   -0.75555629969164
H         3.78031998732121    2.92255231403805   -2.50117368373244
H         4.03110043730258    1.67090028785423   -1.30984518237993
H         1.96896626210275    3.75132023708007   -3.28473659292011
H         0.42933983328968    3.32297678909221   -2.81014337611797
H         2.01666682662240    2.02212944508444   -5.06224320725208
H         0.40353321061130    1.47412077996934   -4.66930459596875
H         1.81718121619480   -0.53848398915511   -5.28718500446459
H         2.09844195057689   -2.40196832597752   -2.08854197056883
H         1.04059517093206   -1.07045699823113   -1.49039075959986
H         5.92464678913167   -0.60797969200202   -0.52926966434452
