32
 energy: -49.282653301514 gnorm: 0.132726232894 xtb: 6.4.1 (79825abcba525fcdf90b791dcacef51065a7a4e7)
C         2.38493403543061   -0.91255685331971    1.41165406508883
C         2.46249898171965    0.08867342834509    0.25832262254996
O         1.22263408683302    0.79708600574749    0.11251742394991
C         0.94011725312412    1.62647367747518   -0.92292965095520
N        -0.18028383945914    2.25678380746626   -0.87476201222450
C         1.93372448985647    1.91788552200359   -2.10434266908248
C         3.30690609545753    2.47771669082794   -1.64077896026061
C         1.24571901887543    2.85228385965292   -3.12832734890840
C         1.48193063791711    1.85866970970407   -4.28025316839968
N         2.05072132303846    0.98212698673307   -3.26816290814403
C         2.03852170593150   -0.42325814437674   -3.30334845177189
N         2.11850756281645   -1.13100697929831   -4.38594935993380
C         1.75506746956221   -1.10681570153326   -1.97905336250916
C         2.80936300127487   -0.74420567600733   -0.98568437259775
N         4.01633646191334   -1.15140203518361   -1.24439780821625
O         4.95084360711956   -0.76722619157747   -0.29233355562051
H         3.23442942324750   -1.50771347315698    1.76508912602834
H         1.66685274311232   -1.68117362890883    1.11184871911005
H         1.80097070386495   -0.42906381503942    2.20248350304172
H         3.23922337934139    0.83237011196331    0.46970922245301
H        -0.79365004901187    2.11425868128599   -0.06040148908695
H         3.27749337728465    2.91383749817917   -0.63378236214950
H         3.85496903207547    3.30608386658815   -2.10544408892653
H         3.97655066673529    1.61776860222939   -1.72634067128813
H         1.70977521767047    3.82629242014371   -3.29738267085544
H         0.17070580798549    3.03172393324281   -2.99625735114418
H         2.12939534373799    2.22726083413020   -5.08773815674369
H         0.63254693756328    1.45287205536938   -4.83078315346902
H         2.25146070083205   -0.62188640391590   -5.25671196948455
H         1.77421458083931   -2.16869903343607   -2.26271208798394
H         0.74314987815192   -0.86245848016338   -1.64200580051785
H         5.81384151858951   -1.13859804482139   -0.55883097547166
