32
 energy: -49.282864148208 gnorm: 0.131678523950 xtb: 6.4.1 (79825abcba525fcdf90b791dcacef51065a7a4e7)
C         1.95202113908293   -0.98316014006442    1.23632554934122
C         2.39605170299104   -0.06216588580777    0.09911041391431
O         1.12342214342901    0.54272255292578   -0.17456182893314
C         1.00380579891459    1.69831245849053   -0.87467200877830
N         0.04286310377364    2.53477658544185   -0.69627210611469
C         1.97086610712118    1.89807702220600   -2.09647456488040
C         3.39039812472606    2.24875737583139   -1.57122971154337
C         1.51110192601631    2.99520041245424   -3.08639051736714
C         1.14995538763818    1.89474622187352   -4.10057583451591
N         1.74370983019105    0.91522562281637   -3.20381960038431
C         1.81672140569303   -0.48138940822940   -3.34745100112398
N         1.62542292907234   -1.14729977925669   -4.44257617702228
C         2.30644250655927   -1.34712126443197   -2.20200946955523
C         3.09480461084100   -0.69312660593325   -1.11546300715737
N         4.38122942284162   -0.87695767339065   -1.08641496596374
O         5.08587648174875   -0.39716410047216    0.00930017550685
H         2.74431222173881   -0.99304994955642    1.99325830531024
H         1.90200980253474   -1.96597814020403    0.75897517184594
H         0.98414794095935   -0.60565823486938    1.58403760895536
H         2.99273461351169    0.77464952562391    0.47960919444043
H        -0.56035579482085    2.38146223904955    0.12368902780060
H         3.30579417294284    3.18838845496703   -1.00994169671800
H         3.97921102380321    2.36046753134496   -2.48954288220015
H         3.82489716286373    1.37186958193669   -1.08385535867929
H         2.29567964852594    3.70915126182066   -3.34587562653688
H         0.58470412802526    3.50254620307757   -2.78692098005369
H         1.69527168259083    1.86243064684117   -5.05382701750417
H         0.08224957510512    1.73361183421270   -4.25304774004372
H         1.22969069432799   -0.54530178582011   -5.16097873757378
H         2.85421094968465   -2.16276695402155   -2.69505808018613
H         1.48811699944730   -1.88252871871465   -1.71112155863447
H         5.97774372426582   -0.52087079904520   -0.36881726488039
