32
 energy: -49.288715844923 gnorm: 0.120241889377 xtb: 6.4.1 (79825abcba525fcdf90b791dcacef51065a7a4e7)
C         2.09145747815404   -0.99467963063110    1.31262763402788
C         2.41039955468827    0.12407178543363    0.31999324640495
O         1.18864886952024    0.82458645557268    0.04254608674526
C         0.97887990179025    1.61451425167855   -1.03997936682185
N        -0.24441176608315    1.94856849915389   -1.25648533198538
C         2.09858503134522    1.97160920576639   -2.08240755550837
C         3.47293647387742    2.50039028462155   -1.58694955579305
C         1.43859497110440    2.89381674769581   -3.13547106912234
C         1.66065999096603    1.76736201236505   -4.16103674664778
N         2.17957445346843    0.89405254944167   -3.11977066009580
C         1.77108251168964   -0.45113375001624   -3.12988791993338
N         1.25331847697110   -0.99586244500655   -4.18559712116068
C         1.95729555663245   -1.28715073452745   -1.87778768915554
C         2.90006147307462   -0.71281861777097   -0.87223209600275
N         4.14183330474094   -0.83475023080231   -1.23645979473028
O         5.22930316538197   -0.40349340342933   -0.48896540945542
H         3.04798417868858   -1.40043176582634    1.66075410166519
H         1.45841593409204   -1.79329133551279    0.91542053542148
H         1.63187903896463   -0.54970635859524    2.20199613675398
H         3.24098453708169    0.66038431029417    0.79282226882895
H        -0.94370089390151    1.43292976846918   -0.70437484112292
H         3.36627486723832    3.56539613487368   -1.34303470598753
H         4.16509112589459    2.40130740621453   -2.43168819904220
H         3.86520418003172    1.95744083462775   -0.72289672241686
H         1.93230058238814    3.84219248763503   -3.35786431275463
H         0.38651508784549    3.11086323565520   -2.90894652943553
H         2.34861025573522    1.92285716978173   -5.00344262528954
H         0.71525512807985    1.36812651426114   -4.52985694826554
H         1.07177519290508   -0.35270849194304   -4.95273651355479
H         2.37909950212802   -2.27995126507689   -2.08957441573616
H         0.91427869627253   -1.40914132049857   -1.57034202405255
H         6.02297543096617   -0.69541752614866   -0.97739960440315
