32
 energy: -49.285071002494 gnorm: 0.121495669384 xtb: 6.4.1 (79825abcba525fcdf90b791dcacef51065a7a4e7)
C         1.78228738446573   -1.29411677406269    1.01851543535046
C         2.36677046171776   -0.12908119156564    0.21868830509525
O         1.28905050811206    0.81740539029763    0.16341317153414
C         1.05270336318664    1.72486174502022   -0.81664463855835
N         0.12561156638050    2.59626423217321   -0.62672858351655
C         1.88919593577857    1.86797978332847   -2.13865459951574
C         3.35007146513131    2.16823806671341   -1.70320352458340
C         1.39345452504027    2.92572672999601   -3.15374485944826
C         1.31788135402023    1.77599009762582   -4.17472109345886
N         1.79772981339109    0.81175700941010   -3.19687822172245
C         1.85134545778518   -0.58997045003205   -3.29057817582678
N         1.65315801105520   -1.26301482445224   -4.38010278272928
C         2.15530084962510   -1.34044556859228   -2.00770915828305
C         3.04367601829153   -0.56761391293053   -1.08938033332670
N         4.33974997760218   -0.54070055032418   -1.18421915109700
O         5.12918996765787   -0.08759634986832   -0.13598153338976
H         2.60316516471663   -1.99425986881679    1.21016480388391
H         0.96092239434673   -1.76656622829778    0.47221258818306
H         1.26511614782819   -1.02768351366005    1.94681340362758
H         3.10919407503008    0.40383849279498    0.82356319741555
H        -0.27766872559870    2.55869066418255    0.31966870052974
H         3.67788317628836    3.17804779873344   -1.98236728932735
H         4.04751178502975    1.52411207156914   -2.25198176818675
H         3.56196994264293    2.07012619095448   -0.63515462109454
H         2.08696031083136    3.75450518660920   -3.31121398453295
H         0.42885186667478    3.38466782536979   -2.90034911003871
H         1.96124549724970    1.96091793204552   -5.04591925854748
H         0.35789454124376    1.61591452177711   -4.66666498830223
H         1.54029612600666   -0.76393099155326   -5.25946922394541
H         2.77204531530364   -2.20950488463599   -2.27750030265265
H         1.17963326029503   -1.63876987293830   -1.61228017244708
H         6.00836193982825    0.07750547572137   -0.52777402136357
