32
 energy: -49.288565731564 gnorm: 0.129650405110 xtb: 6.4.1 (79825abcba525fcdf90b791dcacef51065a7a4e7)
C         2.02179964860783   -1.24796491821412    1.19399853194587
C         2.32335686447548   -0.10692002548189    0.22151120109860
O         1.10777153314121    0.61370719294308   -0.03032448042118
C         1.07603628488469    1.67272232674650   -0.87727792670916
N        -0.05150531357451    2.28231737886615   -0.98660959798067
C         2.10513703179780    1.93175478641709   -2.03562449215592
C         3.51574979883929    2.37869825505568   -1.56197574609121
C         1.52211681226662    3.00031338813882   -2.99127419025134
C         1.37366599063288    1.88950482892153   -4.04676687163212
N         2.09483287071223    0.96811144737063   -3.18240048337036
C         1.87076684633804   -0.41781241697895   -3.25658710937017
N         1.67972349512767   -1.07009161870383   -4.35992982495966
C         1.97055067290465   -1.30720753742816   -2.03168947818395
C         2.92620221634308   -0.68106380782510   -1.07019002181391
N         4.18747238668323   -0.87360087271816   -1.31849121440395
O         4.97065642916571   -0.23102037051342   -0.36926306544393
H         2.91103481391024   -1.70011908916185    1.64741620479336
H         1.41194897738218   -2.04398265183258    0.75726788351867
H         1.40490950449780   -0.82250865006434    1.99313769612698
H         2.98397241330738    0.70112131886638    0.55576578696222
H        -0.72584748751074    2.08365139290412   -0.23460624485947
H         4.21485254631284    1.97447837394225   -2.30559544540998
H         3.72264562559899    1.96948835990103   -0.56587322256991
H         3.39310142756108    3.45685206130423   -1.42856988953550
H         2.23637389314329    3.75073790747516   -3.33670203616552
H         0.63647051381828    3.45365842371957   -2.52715831697091
H         1.83174969192547    2.08167843597587   -5.02673146219761
H         0.31017480160749    1.71608868489683   -4.21446005023007
H         1.65706090299859   -0.54093617834814   -5.22860050065490
H         2.33237538622922   -2.30745751218317   -2.30919254190719
H         0.96866857418150   -1.38012717529596   -1.59786496848965
H         5.86370580350506   -0.54748379402343   -0.60594225869368
