32
 energy: -49.288845797754 gnorm: 0.125344423130 xtb: 6.4.1 (79825abcba525fcdf90b791dcacef51065a7a4e7)
C         2.36453026392990   -0.73435390156185    1.33162187326778
C         2.54085899350851    0.22450173473894    0.15342159957652
O         1.24472377209223    0.83457611358092    0.06278356838102
C         0.87860331658935    1.61882419078053   -0.98161152609074
N        -0.21252417303244    2.29620227367266   -0.90738656058021
C         1.90877814033214    1.92706934455126   -2.12687906296058
C         3.27099865384824    2.42046962133369   -1.56577172721866
C         1.31044596642444    2.91114676498792   -3.16060371358513
C         1.57649459873153    1.85961319024506   -4.25307493446689
N         1.96687113431771    0.90863289973555   -3.22379395444101
C         1.91302867271816   -0.49572060340173   -3.26102905275480
N         1.80989156015623   -1.20640670184115   -4.33974073247874
C         1.85095064279818   -1.23062276021829   -1.93535191765663
C         2.89453121556921   -0.74833845705579   -0.98238366154243
N         4.08620016918539   -1.22755202646965   -1.18189786720738
O         5.03002342578530   -0.79649761701217   -0.25955802641450
H         3.33013810167459   -1.20340750341009    1.55153183167310
H         1.60366158131669   -1.48476548189491    1.09869045221457
H         2.03908544236513   -0.05540370948285    2.12742473857841
H         3.39278568305177    0.90350485609385    0.27277621791288
H        -0.84309477027425    2.17320164886768   -0.10304449900099
H         4.06618077532781    1.70798974163753   -1.31049456104316
H         2.98513865412643    2.90330687101446   -0.62362995618533
H         3.67254411737744    3.12337107880890   -2.30058201429805
H         1.78428339772275    3.88529432900044   -3.29893355533453
H         0.22401047260513    2.97764434197908   -3.01731860155940
H         2.40282020580677    2.05006587971823   -4.95165616839878
H         0.75931130680547    1.60969447995131   -4.93054063490641
H         1.93621911131842   -0.73189925415823   -5.23080293703153
H         1.90792915670518   -2.24909790121210   -2.34509200120213
H         0.82361873042815   -1.01470991025585   -1.62671052029312
H         5.78306175706671   -1.41827190673060   -0.25378502620388
