32
 energy: -49.291564044216 gnorm: 0.127851740402 xtb: 6.4.1 (79825abcba525fcdf90b791dcacef51065a7a4e7)
C         2.29383995725426   -0.09074932328950    1.64889587360715
C         2.56555606245152    0.48719704614329    0.25936352095461
O         1.30350246786673    1.09327101367041   -0.05728699955473
C         0.99053709111238    1.72475781111230   -1.21622073391475
N        -0.20781622028716    2.18254386380104   -1.31260984254786
C         1.95161209393558    1.91549563673430   -2.44417303015948
C         3.20091584639705    2.65466414636290   -1.89027771426887
C         1.16049504969502    2.55148384445810   -3.61235503809925
C         1.70113168280753    1.42170373176047   -4.50751258240987
N         2.16770998510153    0.72064028519303   -3.32134588960003
C         1.96215521582196   -0.65141454892216   -3.09395422673160
N         1.94523642696369   -1.42355435290056   -4.13455248712434
C         1.79763709462890   -1.14293179962244   -1.66822660539849
C         2.84839498768948   -0.65957988090221   -0.72372367697240
N         3.92887103258376   -1.38200211417873   -0.73800863054740
O         4.92237906158293   -0.98442335638573    0.14640865976114
H         2.37970035490990    0.71802694274705    2.38325212596644
H         3.00235703337591   -0.89474479303760    1.86773501541497
H         1.28716067179821   -0.52212449703907    1.62239748421726
H         3.31948062583906    1.28143765041785    0.30236864496052
H        -0.77806215873169    1.94728133536318   -0.48848260868073
H         3.47094224771118    3.33932800423570   -2.70478969636231
H         4.00545494580219    1.95807221168618   -1.62578694487311
H         2.91148386405648    3.26749349935062   -1.03241719050945
H         1.59028280316327    3.52466775567602   -3.85896422972324
H         0.07604991627688    2.59345356607642   -3.44648786689182
H         2.62288563167031    1.62826996692777   -5.06858479612720
H         1.15922663644378    0.71346607475515   -5.13516377355089
H         2.17008362593802   -0.91229092399668   -4.98494137632367
H         1.89900526225821   -2.23752878606020   -1.67087458969799
H         0.78055096905777   -0.89436267308217   -1.35036200345210
H         5.63470552364689   -1.63483696514168   -0.00609206693577
