32
 energy: -49.286402879632 gnorm: 0.116712392829 xtb: 6.4.1 (79825abcba525fcdf90b791dcacef51065a7a4e7)
C         2.28493990970944   -0.94258738194401    1.37262564140556
C         2.50419464237786    0.08360869518218    0.26019551980740
O         1.26334181751756    0.76433021263272    0.02087365369708
C         0.91429427786474    1.57445329988290   -1.00952272737920
N        -0.31967529474487    1.89116644778019   -1.18818850090277
C         1.97850081953265    1.96459260111689   -2.09725830528593
C         3.33314976627209    2.50254904997956   -1.55924431758236
C         1.44422260246869    2.93300456548716   -3.17971912964325
C         1.83354914626691    1.86275879553170   -4.21557478352939
N         2.04644093585364    0.89852400336057   -3.14734960209656
C         1.66468561704121   -0.45411526901540   -3.18087690304922
N         1.17385326331847   -0.98603240987409   -4.25580881996021
C         2.00984618556314   -1.34153187064366   -1.99989822036437
C         2.91117574617446   -0.68459881204875   -1.00699792543356
N         4.15856737614256   -1.00712968550796   -1.17879546206612
O         5.06892741512818   -0.46723963137731   -0.28041672923038
H         3.10953121420697   -1.65464743268458    1.49005571704248
H         1.43900432399071   -1.56928558929545    1.07608209397201
H         1.98508062051494   -0.43132353269364    2.29397441891164
H         3.29289859148749    0.73599540186606    0.65186820412463
H        -0.99569331546955    1.58102651477851   -0.47648109054168
H         3.17565194945755    3.25566287802187   -0.77622285366138
H         3.93483659388348    2.96938612895811   -2.34824048716836
H         3.99095985208241    1.76010099797569   -1.09955731641823
H         2.04522673177452    3.82257778983218   -3.37990415055067
H         0.40499877862951    3.28063536955881   -3.11292625539809
H         2.77825213987246    2.01345927080527   -4.75587802827562
H         0.95332485820057    1.68765226961149   -4.83505083570501
H         0.82021983986033   -0.20372801662087   -4.80174935261940
H         2.60546937384002   -2.11715589061438   -2.50195946123176
H         1.07621356993029   -1.74216715892959   -1.59356065996728
H         5.98300723601845   -0.57345661632889   -0.60734081130378
