32
 energy: -49.293313548439 gnorm: 0.131581355551 xtb: 6.4.1 (79825abcba525fcdf90b791dcacef51065a7a4e7)
C         2.01343159307282   -1.15958905633593    1.27623103499637
C         2.36709732252106    0.02834737138814    0.38047469243735
O         1.17811943641208    0.77347440498893    0.07800189126908
C         1.00222255777845    1.74900499699001   -0.84787643391290
N        -0.05102193193609    2.48750160103579   -0.83344003547997
C         1.92884812581741    1.89887354479001   -2.10756584286077
C         3.28410601466412    2.50759595315558   -1.65296374563908
C         1.39824549806794    2.80050211442144   -3.24797066998356
C         1.85248759504124    1.74460342748752   -4.27205083446815
N         1.97609949601664    0.82546779464810   -3.15129820161154
C         1.92001342672931   -0.57927641774237   -3.14479776050942
N         1.86147886983736   -1.28829185513548   -4.22794211492305
C         1.77268362096764   -1.23974075391293   -1.78706600697952
C         2.82279694228656   -0.58058304164729   -0.95485196976430
N         4.02941552394312   -0.86202655404542   -1.34777386499301
O         5.05837814075169   -0.31480083711168   -0.59338604986134
H         2.89845452604282   -1.68626185626720    1.65055754421943
H         1.43297639077226   -1.81073418503702    0.61639960316272
H         1.41125525471326   -0.77411184725222    2.10627975167406
H         3.15508975969564    0.63303074104742    0.84361159243042
H        -0.71251604928628    2.24790587020782   -0.08195217570501
H         3.85037496645668    2.91627680174132   -2.49997499610487
H         3.94194318572257    1.79955429102664   -1.13488448937113
H         3.20086824954892    3.27144223967483   -0.87523262964831
H         1.90255823413944    3.76174319643916   -3.36757325690060
H         0.31085130871471    2.95160018165965   -3.24181620585886
H         2.82706360885199    1.92773032128701   -4.74509217129990
H         1.13584379331088    1.43276935619419   -5.03256963362566
H         2.04408851896517   -0.75494548209273   -5.07487964788685
H         1.88357778164721   -2.32095535277642   -1.95169459986186
H         0.75145237450714   -1.00802132007870   -1.46976240475203
H         5.84941939489371   -0.71457322593579   -1.00343372460885
