32
 energy: -49.291999881813 gnorm: 0.122076631725 xtb: 6.4.1 (79825abcba525fcdf90b791dcacef51065a7a4e7)
C         2.16718053669094   -0.86419389363127    1.31488405134881
C         2.48982377756426    0.11284097503742    0.18353263566955
O         1.23841976033217    0.80865400961696    0.08251433507503
C         0.94387996055627    1.67032063949403   -0.92278524306847
N        -0.22535779184946    2.20239944756422   -0.85433959534246
C         1.91780026278333    1.93947822555500   -2.12567607762750
C         3.35913281509303    2.35256312744798   -1.71842762796137
C         1.29078435695575    2.97265489584288   -3.09231634980381
C         1.21468054140512    1.89188777106238   -4.18600219591430
N         1.75805026775951    0.93980088821579   -3.22972996963354
C         2.05151107744894   -0.43300760173104   -3.30570227545526
N         2.32837456058865   -1.08319687514791   -4.39194873810876
C         1.88018111918867   -1.14683663559007   -1.97812973208801
C         2.94802087550978   -0.71291677486550   -1.02879372477520
N         4.11676579348203   -1.27088827172960   -1.13938110389400
O         5.04843396830885   -0.67820138828133   -0.29793134673075
H         3.08608290176690   -1.29027118447296    1.73303085548123
H         1.50356548713858   -1.65665456800269    0.95722935605762
H         1.75987700719780   -0.36541677243471    2.20117695333007
H         3.30216987334386    0.80804580255522    0.42406103438735
H        -0.79957168585545    1.98276625842407   -0.02865548740613
H         3.38067737896740    2.83803672521764   -0.73407005508396
H         3.75752961272410    2.97504076241811   -2.52853900432922
H         3.93283974961013    1.42190993004331   -1.71901904803530
H         1.74819488640298    3.92286307836864   -3.37604252473484
H         0.31687654970990    3.30013839987460   -2.70559582413250
H         1.86798193324433    1.95327997287628   -5.06721173930337
H         0.22804271580661    1.59850106675835   -4.54611010986604
H         2.52985982332464   -0.51487548653811   -5.21141338298312
H         2.04384752472935   -2.21225123720055   -2.19383816098533
H         0.88489252849951   -0.90372791142644   -1.59395856295787
H         5.86931126507659   -1.20140039816676   -0.37620383893052
