32
 energy: -49.284171712591 gnorm: 0.126236466699 xtb: 6.4.1 (79825abcba525fcdf90b791dcacef51065a7a4e7)
C         2.34776866037727   -0.68327644489712    1.44883223811188
C         2.63781287453276    0.23724690403612    0.26259325427701
O         1.56293638625511    1.17168096028034    0.08413874800727
C         0.96818780569029    1.66114910616441   -1.03234922505449
N        -0.30379563656950    1.85158984696804   -1.05880777699397
C         1.85354581866384    2.01770516316008   -2.28011600671472
C         3.17002100162430    2.55172118780735   -1.65110886409952
C         1.23664666605730    2.96259397217502   -3.33918020293937
C         1.70910990245913    1.94640017573855   -4.39470223580312
N         1.96868348182393    0.97187622504761   -3.34632190782459
C         1.84761950797623   -0.42729283701478   -3.28179547142991
N         1.56750125024621   -1.23062959826515   -4.25929978268081
C         1.90324647087290   -1.07828051622179   -1.91268065422111
C         2.93669793061324   -0.73182279321445   -0.89201805376782
N         4.07231782237838   -1.33157918920819   -1.09248291342623
O         4.95886839477926   -1.16201014003937   -0.03768651601280
H         3.26249906739948   -1.21426241323908    1.73534985704195
H         1.65056874513779   -1.49037185560573    1.20633479680435
H         1.91025094326565   -0.22240812493535    2.34122706347877
H         3.49232255942766    0.90165442979951    0.43419068153336
H        -0.74412880118236    1.56212022037865   -0.17448395145768
H         3.81337294822974    2.99446087092174   -2.42259345251714
H         3.71479875154204    1.71866535405905   -1.19098492114693
H         3.00843317113231    3.24893277668008   -0.82464607263693
H         1.55412973034032    4.00688487353169   -3.37497891920347
H         0.16014811631333    2.92497094252207   -3.12697743821260
H         2.64787917157584    2.24266793799003   -4.88259530675024
H         1.01495440922992    1.54587156513933   -5.13425119094027
H         1.68180069385021   -0.85497767803132   -5.19787801145481
H         1.90633095972613   -2.16530532512350   -2.07636522914310
H         0.91852808260240   -0.80166368487995   -1.52396283202202
H         5.79367140433968   -1.43512747065150   -0.46455204829554
