32
 energy: -49.289059765911 gnorm: 0.140592314323 xtb: 6.4.1 (79825abcba525fcdf90b791dcacef51065a7a4e7)
C         2.05485196270315   -1.04094212926268    1.26323635079101
C         2.42978069846597    0.12435114683706    0.34662747184391
O         1.25200937576986    0.91856781040414    0.14060059065378
C         1.01380024790328    1.66144605474405   -0.96901134070173
N        -0.14645285551118    2.17353908047947   -1.18461067669705
C         2.00395734241080    1.91858074649910   -2.16122928229954
C         3.48296232856220    2.15940507568244   -1.75076872299448
C         1.60772090790968    2.95699023761420   -3.23812240883464
C         1.33418850448579    1.82170580698446   -4.24127114368313
N         1.81732306285573    0.88993701361865   -3.23401517431759
C         1.75344249702711   -0.51448730377238   -3.23160642095683
N         1.45320557916266   -1.21727039998937   -4.27816485927895
C         2.08222078436274   -1.19436602946369   -1.91592240697191
C         2.98810100290830   -0.59348614302640   -0.89213952558048
N         4.25002664010190   -0.75875060721058   -1.15625648406217
O         5.02402908033234   -0.37299307919940   -0.07023973769561
H         3.05281529799541   -1.43411162480715    1.48741729465954
H         1.37004618716831   -1.81531472175937    0.90590755431874
H         1.59085254922221   -0.70402476361250    2.19671432151097
H         3.20177557031826    0.66429739102216    0.90658443378390
H        -0.75748754694188    1.90994406442753   -0.39920067912872
H         4.15334684370423    1.70452274795918   -2.49156241107123
H         3.71798653581030    1.74423606597292   -0.76341003959324
H         3.73661368816937    3.21720533519304   -1.64133853817945
H         2.35921895558039    3.71502200536735   -3.46890163986030
H         0.71941586136537    3.55614984030652   -2.99892262015758
H         1.98712392147240    1.87793355448459   -5.12309638265905
H         0.33399576265201    1.58168767535147   -4.60350510808939
H         1.15872975195341   -0.66848634221414   -5.08266958944414
H         2.48276195851583   -2.16067888474556   -2.25390364862847
H         1.09481190300032   -1.33136277471187   -1.46476355635120
H         5.90209521408046   -0.45757533964385   -0.48922545369233
