32
 energy: -49.297167399249 gnorm: 0.119822776921 xtb: 6.4.1 (79825abcba525fcdf90b791dcacef51065a7a4e7)
C         0.87634571304827   -1.10385847835977    0.44592671418785
C         1.77575934620921    0.09053219619127    0.12477590326384
O         1.19551765166123    1.01427005763026   -0.80817663464056
C         2.02852472860929    1.97725774834125   -1.27572797720771
N         2.73200501873941    2.77936229295192   -0.55694193510304
C         2.07531420395337    2.05858087589026   -2.84388302820218
C         3.36876005619771    2.59573222010232   -3.51648711875451
C         0.74527772997724    2.47694871160696   -3.51542433295864
C         0.57843388279295    0.99471327459504   -3.89639591155780
N         1.89715791415794    0.66951268746929   -3.37544656953637
C         2.09329809051763   -0.60529008427953   -2.81607088588974
N         1.55045779182515   -1.69194845792063   -3.26754499446593
C         3.27132518540525   -0.85508408662787   -1.89346055468282
C         3.07544668845060   -0.48385817060117   -0.46041137459560
N         4.16350334681568   -0.60106184749296    0.24096045306485
O         4.05423760073217   -0.20078029428534    1.56578372097834
H        -0.09099073673138   -0.67324391526363    0.72806401050838
H         1.29951458632483   -1.66941119976645    1.28101590561514
H         0.73331130553313   -1.78152412934224   -0.40289618273423
H         1.96141645326867    0.56040384707270    1.09730965916309
H         2.85428035554964    2.60253972242590    0.44978399547283
H         4.16109907952721    2.67532325960974   -2.76085972264066
H         3.17740718102049    3.60016303865476   -3.91269624146132
H         3.65686563060213    1.86597135401767   -4.27786720187734
H         0.92051009534854    3.13325762786362   -4.37051073601183
H        -0.01695127312813    2.83431575282406   -2.81073264847387
H         0.44787917352614    0.82381249183758   -4.97382357433255
H        -0.21582985382208    0.52619905871903   -3.31429005841306
H         0.82821578213080   -1.61238388128633   -3.97968527421887
H         4.16118442625644   -0.30266221186617   -2.22723545876319
H         3.53859007496602   -1.91401384544101   -1.96073580809106
H         4.98596604950898   -0.11948939113973    1.84681256244095
