32
 energy: -49.285989179628 gnorm: 0.120757333143 xtb: 6.4.1 (79825abcba525fcdf90b791dcacef51065a7a4e7)
C         2.20669271353446   -0.88617077714351    1.41790622070938
C         2.42221722847149    0.00296194752143    0.19249038322997
O         1.16027240092272    0.60336739066376   -0.13520006023715
C         0.92765242168756    1.53889710333767   -1.08941303774562
N        -0.26593501840215    2.00294830108701   -1.21154038565497
C         2.02885305619726    1.93195353177431   -2.13859211298820
C         3.37094373490182    2.39596553324336   -1.50818317388347
C         1.35349195942864    2.97583642215689   -3.06010841051301
C         1.62793109043228    1.93532240377602   -4.16102250441643
N         2.14281399315173    0.92902005011856   -3.24536543749204
C         1.77929161442770   -0.42854643569121   -3.20850176503994
N         1.35607013619788   -1.13835552705757   -4.20669288210019
C         1.92149450848143   -1.22027180070587   -1.92230427397499
C         3.00928787914447   -0.71683473902183   -1.03176302175920
N         4.28108971613357   -0.89131199565016   -1.23573406499366
O         5.23301761907457   -0.44520657291784   -0.32901237318178
H         2.97199889880549   -1.67013562000191    1.43971736697621
H         1.21341961890000   -1.34182212548583    1.37223195940679
H         2.12516568584863   -0.22322772968012    2.28626659901799
H         3.19362376287313    0.70879976289010    0.52081151522388
H        -0.90012167951981    1.74286334794995   -0.44350544018357
H         3.25081785331460    2.99483875371147   -0.59602680067514
H         4.00582083590607    3.07070867627104   -2.09481048553368
H         4.08207324810626    1.59928335170606   -1.27398737206208
H         1.86845630045823    3.92399309342055   -3.22872389287009
H         0.28926550007158    3.18580429051725   -2.89090392059765
H         2.32458644128756    2.25806518410424   -4.94690442656456
H         0.71326597777769    1.64350189310923   -4.67816483917185
H         1.30563118547002   -0.61713840810458   -5.07898666779918
H         2.05133822335355   -2.22795277794985   -2.34200028825856
H         0.93958716704881   -1.12465618152094   -1.44901330325653
H         6.01995983086307   -1.01589734500206   -0.42248600114185
