32
 energy: -49.283285441175 gnorm: 0.120632128933 xtb: 6.4.1 (79825abcba525fcdf90b791dcacef51065a7a4e7)
C         1.99895777575978   -1.20865251696690    1.27777735161030
C         2.28424792116768   -0.10881441964943    0.25424547172182
O         1.12288865331858    0.70027582298553    0.01551940442164
C         1.12875014313065    1.73310119413656   -0.86373467776620
N         0.11662482659004    2.52659663185797   -0.89334809087119
C         2.05842221878713    1.82972441735253   -2.12638536816687
C         3.50491628420927    2.19279875939084   -1.69076865387308
C         1.62631639634316    2.94141440271096   -3.11250217054301
C         1.54281941400986    1.82066121665641   -4.16461369173420
N         1.67519006542853    0.79603798727725   -3.14050337728160
C         1.83154316890778   -0.59232436188081   -3.29702144968211
N         1.52940664897551   -1.33953038293801   -4.31177637551935
C         2.00853263119036   -1.33991784129905   -1.98891845418573
C         2.92116407500893   -0.63122202691985   -1.04305316830313
N         4.19787422865428   -0.58246785757365   -1.28213613035855
O         4.88381014319303   -0.03055541237693   -0.20872772758506
H         2.89550858902271   -1.81026093667402    1.46495136695963
H         1.28917855153420   -1.86455365281438    0.76562220953429
H         1.73044845479871   -0.74429597331277    2.23300802286971
H         2.97320675598818    0.60408722178938    0.72133949186512
H        -0.59889744242573    2.44173934327348   -0.15813267327885
H         3.86222534374055    1.74615516774396   -0.75377967241475
H         3.55680928683495    3.27463592513772   -1.51926261359921
H         4.22739212463399    1.90306944012679   -2.45845410336849
H         2.42634041482312    3.67814650791833   -3.21153708381869
H         0.64144147925913    3.38964930373009   -2.92702575497021
H         2.29833455359373    1.75284766192358   -4.95940936861508
H         0.57949878654401    1.78060839926635   -4.67413976121235
H         1.27672661430250   -0.80404050035026   -5.13912830055564
H         2.29112703101675   -2.33904489036712   -2.34990410430633
H         0.97655073913804   -1.38491737514297   -1.62797919790074
H         5.78346374382877    0.17145884667119   -0.53046824665605
