32
 energy: -49.290658867308 gnorm: 0.125256379681 xtb: 6.4.1 (79825abcba525fcdf90b791dcacef51065a7a4e7)
C         2.11054066868146   -0.52755701405174    1.63530226162450
C         2.38173346951387    0.28185110567235    0.36645839338936
O         1.23199050768404    1.08296450615703    0.05552283570896
C         1.03517709340008    1.75158403209775   -1.10811916752100
N        -0.08541354710928    2.36253673755168   -1.26912538835337
C         2.04368916477445    1.92893677253221   -2.29948910397177
C         3.43509086992846    2.36317475391391   -1.76155914801262
C         1.48247848244113    2.69546010096456   -3.52116047026097
C         1.69139212419738    1.44977601753171   -4.40128793404319
N         2.10512098448497    0.73590452943724   -3.20320921273422
C         1.84991699824832   -0.64311037670131   -3.10480691346778
N         1.59852556371857   -1.44361793045413   -4.09239025918127
C         1.74585446392288   -1.23946116034464   -1.71380316385582
C         2.76439664093626   -0.64640864236519   -0.79692390376657
N         3.97360351402657   -1.02237342282997   -1.09017407230665
O         5.01150779444052   -0.50793832146304   -0.32503862661510
H         3.09946014771939   -0.88865605178286    1.93930211484051
H         1.33996271827806   -1.29188697089120    1.50000603183024
H         1.76086312040503    0.16240260850316    2.41110585802519
H         3.19025128648878    1.00255565007313    0.53365210066278
H        -0.66553391240736    2.32906792796263   -0.41938731912735
H         4.06220200045007    2.92102863025181   -2.46911783429746
H         3.99687274760672    1.53018349503893   -1.32223519431126
H         3.36654277736311    3.15794967505952   -1.01397012571291
H         2.13385296899705    3.45358665990912   -3.96113311058193
H         0.53617530427523    3.25011720259579   -3.47468027070337
H         2.57083917032456    1.40163154913216   -5.05806566072873
H         0.81052613570082    1.06391533242487   -4.91548081041919
H         1.63059396197888   -1.09330244839282   -5.04704123981304
H         1.78552047373868   -2.33795914376063   -1.72620759795251
H         0.75258952083553   -0.99761683251691   -1.32364320733762
H         5.73394018483018   -1.13354704803287   -0.52605724717682
