32
 energy: -49.292377244814 gnorm: 0.119555263959 xtb: 6.4.1 (79825abcba525fcdf90b791dcacef51065a7a4e7)
C         2.03951620724677   -0.98926741099851    1.31608777561830
C         2.47061306125376    0.01602380938883    0.24735167568341
O         1.31398094220699    0.82695819402929   -0.00752087712250
C         1.00175897327150    1.68746658586487   -1.00846694849149
N        -0.13110790188489    2.29692077733086   -0.99909622425807
C         1.99201599758077    1.98563432128592   -2.19100656535371
C         3.41723281933900    2.30541303504841   -1.66145150094033
C         1.35166731414863    2.99471966960739   -3.17421392364747
C         1.31348357313065    1.83742774520830   -4.18871651416843
N         2.05477989216321    0.96794212833232   -3.28835479633757
C         1.88947624474828   -0.42810101029696   -3.27310826009815
N         1.48405443109914   -1.04701082581929   -4.33702303999920
C         2.13843492077820   -1.29570083235088   -2.05382781592530
C         3.01234276832968   -0.68501858167381   -1.00828524926801
N         4.27490148939517   -0.98463653269612   -1.08379010191689
O         5.07249888651466   -0.44549208222379   -0.08354879612358
H         2.78403985334714   -1.77572620795149    1.48323219611512
H         1.06229430646389   -1.45192174191772    1.15090892799801
H         1.96854072315361   -0.49321917956261    2.29029951673562
H         3.35337686323479    0.55416120255722    0.61095315814434
H        -0.75645311595074    1.92065505544369   -0.27309205414070
H         3.49867392736020    2.20662930525449   -0.57116817153895
H         3.63796696159044    3.32415764110155   -2.00191402024985
H         3.99106627993406    1.58502937345048   -2.25053376905230
H         1.99031147352658    3.86134416165167   -3.35783352541692
H         0.33986583039276    3.31761904325800   -2.89620605128148
H         1.89194253259420    1.90533963283488   -5.12031470298502
H         0.32857920459398    1.40984899924278   -4.37936666223235
H         1.23788618593459   -0.46851612057882   -5.13693109082012
H         2.56056199141179   -2.23068232559739   -2.44885113558807
H         1.16388290958410   -1.55619865337395   -1.62994343116098
H         5.90324854817516   -0.95161868143450    0.00244066278632
