32
 energy: -49.289281889063 gnorm: 0.132017211076 xtb: 6.4.1 (79825abcba525fcdf90b791dcacef51065a7a4e7)
C         1.88558568398890   -0.82712554893623    1.56410140692832
C         2.30420435486713    0.10657489649638    0.42760957024479
O         1.21311046314999    0.93085128738203   -0.00880197017816
C         1.04985665063930    1.77811549514568   -1.05538778320347
N         0.05528285942145    2.59168637578092   -1.11731511908225
C         2.03718621152976    1.92507389488441   -2.26844034244070
C         3.51232332127926    2.34103552253650   -2.01373183012392
C         1.50146149655780    2.75193865707513   -3.46187659874875
C         1.57640343386074    1.48827981474356   -4.33797484698219
N         2.04866690439302    0.73936250185152   -3.18373623213456
C         1.81011808667517   -0.64110681022327   -3.06586687501948
N         1.59896516568686   -1.34353941812163   -4.13419911221640
C         1.84202838565041   -1.27184297813251   -1.68655242812820
C         2.86087830866883   -0.68916399089442   -0.76338555218725
N         4.10667558302408   -0.83911622835171   -1.10254616687224
O         5.02344544745993   -0.26022670017889   -0.23551620705283
H         2.77744668589693   -1.38705187372447    1.86714699228674
H         1.11487643339841   -1.50863896239961    1.19283000842150
H         1.50653062888903   -0.31880464931073    2.45747535734227
H         3.12665078900404    0.79744377650810    0.64521447631892
H        -0.59256968723737    2.65290537033533   -0.31965987077315
H         3.81038033674168    2.13635626106427   -0.97721022469191
H         3.74642930889741    3.41146773536354   -2.05672156385914
H         4.10905036027142    1.63471208002312   -2.59706656362811
H         2.18045134267551    3.53111080774932   -3.81469961837732
H         0.48014818015652    3.12379905805137   -3.30717178006045
H         2.45943164964920    1.55135206789239   -4.98865529375377
H         0.67456739333397    1.13048164369269   -4.83585023382633
H         1.71906713581941   -0.87783796850678   -5.03075111812194
H         2.05896519463599   -2.32517558342462   -1.91426702928750
H         0.83580007356633   -1.18194578786139   -1.26618139718761
H         5.84379957482048   -0.67113503912825   -0.56999605181885
