32
 energy: -49.289338914986 gnorm: 0.123870246818 xtb: 6.4.1 (79825abcba525fcdf90b791dcacef51065a7a4e7)
C         1.82097612293295   -0.55312571146567    1.57986373271638
C         2.34356011078542    0.19651113275891    0.35364907801999
O         1.21476932635091    1.00869986957846   -0.00209423898730
C         1.15233783759736    1.80478935474840   -1.09854038788380
N         0.14072582668991    2.59932468282400   -1.08228113304129
C         2.07242594322314    1.92240209244937   -2.36641974231764
C         3.55258002427201    2.34111110379609   -2.14788682231403
C         1.47840780792518    2.73612820318219   -3.54114893041688
C         1.35550100381217    1.43474168821687   -4.35434334601463
N         1.90638929015463    0.70482363576894   -3.22300855068098
C         1.84756944727458   -0.69446692422449   -3.10045098027541
N         1.67426738224931   -1.51016823395828   -4.09238275030400
C         1.95156879445708   -1.30143806175723   -1.71404380022355
C         2.92568998917383   -0.61358969633684   -0.81528936139430
N         4.18473802289557   -0.92595837861090   -0.89744945905566
O         5.12243241444425   -0.34671907609174   -0.05333331094957
H         2.58228968046646   -0.72851703135665    2.34824496068312
H         1.38554188015592   -1.53600181444798    1.37825193935434
H         1.00203206391099    0.03791866391476    2.00434820016456
H         3.12467330115798    0.85104810094999    0.75677856014159
H        -0.39107818637899    2.41451650670070   -0.22045457215583
H         3.94833498839578    1.46882820749754   -1.61159475228528
H         3.49554775076996    3.19819165814066   -1.46624240926569
H         4.14650655129113    2.54888401833480   -3.04194334115955
H         2.20399159975517    3.47110483025939   -3.89605462576072
H         0.47477849488999    3.15579179812992   -3.39314456162091
H         1.96914117372316    1.43181858603559   -5.26568256433680
H         0.36071635119447    1.16603281247321   -4.71128410377855
H         1.54431727643596   -1.06711472689131   -4.99898320189233
H         2.09909251544115   -2.37837909295580   -1.87793355031377
H         0.93262373447505   -1.29090925769533   -1.31538501596201
H         5.86989402566355   -0.96251841366518   -0.17901401363667
