32
 energy: -49.283774692503 gnorm: 0.126765965435 xtb: 6.4.1 (79825abcba525fcdf90b791dcacef51065a7a4e7)
C         1.89185800869806   -1.18951469214061    1.36347177989856
C         2.36448613392496   -0.19418073206585    0.30300736719863
O         1.21861170817378    0.61400324530253   -0.00388504527314
C         1.03274098070285    1.53269752747194   -0.98434576608657
N        -0.08393919070342    2.15613922624579   -1.12310981254929
C         2.13845290317516    1.92383106627944   -2.02949105817776
C         3.55839361327365    2.27716255855426   -1.50713559237236
C         1.57797822095132    2.99819253353299   -2.99209792711830
C         1.52489896725488    1.95196081787841   -4.12018475574244
N         2.04897942298151    0.97135617835573   -3.18213842951585
C         1.83531293979719   -0.41285499255534   -3.30379485829552
N         1.25648073674566   -0.93438289516754   -4.33931057689387
C         2.17032467890101   -1.36753723017451   -2.17343931505869
C         2.90289959553742   -0.79627420371840   -1.00433728037288
N         4.18138203965671   -0.70980193900508   -1.22235478141554
O         5.00045645076443   -0.06404560749970   -0.30614689659045
H         2.59266617166174   -2.01865016623128    1.51237592674747
H         0.90274254918503   -1.46114054944431    0.98378014570417
H         1.70838739057152   -0.74704429666750    2.34873741345711
H         3.16026234915147    0.39865482937087    0.76814825958733
H        -0.81902049757693    1.75618926497206   -0.52360160465301
H         4.24872099169598    2.03161613182876   -2.32460956091224
H         3.83923207715467    1.64727509827207   -0.65458037204373
H         3.64796392641946    3.35263457472109   -1.33222855071604
H         2.13198664201564    3.93897613150306   -2.96716948239271
H         0.56113835454207    3.37712205651718   -2.82553342627083
H         2.17447132966209    2.19573415461199   -4.97208397559596
H         0.50442037616612    1.79364114246921   -4.47056454745967
H         1.00852342866623   -0.37328298395408   -5.15097053037046
H         2.72947937744226   -2.23417971035785   -2.55383636997986
H         1.24028489194349   -1.81654157685093   -1.81190120138931
H         5.86024509468892   -0.11655878100368   -0.76626555315916
