32
 energy: -49.282857174548 gnorm: 0.136821745799 xtb: 6.4.1 (79825abcba525fcdf90b791dcacef51065a7a4e7)
C         2.36783102411619   -0.93472315887753    1.25565735578960
C         2.52368998328274    0.15664753442052    0.19581311623380
O         1.26812322156513    0.84639248368932    0.10538912996957
C         0.91556012755583    1.60685847621703   -0.96102591080993
N        -0.28084831646090    2.07928145915148   -0.94277932034090
C         1.89515766030300    1.98354087784808   -2.12996215440134
C         3.28683230831320    2.51842324241564   -1.69284375067700
C         1.18255386343378    2.91717438738663   -3.13769262071516
C         1.60897536312071    1.97557213059133   -4.27854668422441
N         2.09584683934590    1.04039288863069   -3.27626297451854
C         1.91927270703240   -0.35425975243579   -3.26014453982066
N         1.74450721020282   -0.99916370061121   -4.37049889551498
C         1.84407709198503   -1.08428990293131   -1.93245620670538
C         2.96020356377303   -0.62518379560515   -1.05308692813879
N         4.04777131191833   -1.33500227268332   -0.99941596191893
O         5.02374047686267   -0.97597733739483   -0.07968431302825
H         3.23623701066978   -1.59715728621587    1.34410073809457
H         1.59742798017312   -1.62965578671384    0.90947311570345
H         2.17395395055034   -0.54284909977116    2.26016534022736
H         3.36776849755288    0.82336870550932    0.40577544939492
H        -0.75156076199819    1.72178136733979   -0.09996376209664
H         3.15403668773790    3.46077124495925   -1.14561968201751
H         3.79125625360731    2.72789021920685   -2.64371647053798
H         3.97054765617248    1.86774156264592   -1.14111733995710
H         1.62635494286802    3.91031199214776   -3.23433025231343
H         0.17052151773995    3.07879605481183   -2.74403846093825
H         2.40597166227485    2.35510283573347   -4.93265318535029
H         0.80717060423491    1.66699568891433   -4.95018451550671
H         1.84841189808794   -0.52605395886213   -5.26519370663577
H         2.05459762836326   -2.12975150616243   -2.19913248308643
H         0.78862781798739   -1.00352057879082   -1.65534275545948
H         5.72425892537829   -1.61046729054006   -0.32544787122323
