32
 energy: -49.288242924565 gnorm: 0.121422527139 xtb: 6.4.1 (79825abcba525fcdf90b791dcacef51065a7a4e7)
C         1.06681274249461   -1.23491036480810    0.38464585918473
C         1.92389018143110    0.01977582875532    0.21192454858853
O         1.09508838305762    0.90487415984397   -0.55622976239544
C         1.72548686031305    1.98920940659120   -1.07262612859080
N         1.94784719838414    3.12024103044128   -0.50145804639120
C         2.11505408444535    1.86207693431359   -2.58919717349266
C         3.64112525118430    2.15086153992418   -2.62969750552201
C         1.07106053847487    2.60404883858021   -3.45784646449551
C         0.66261239636501    1.23155912184462   -4.02303687289274
N         1.76793887507489    0.60058410045700   -3.31855082816785
C         1.95132375719830   -0.74662681824798   -2.96093798373262
N         1.25599111682379   -1.68710824291016   -3.51891476626966
C         2.93246623650988   -1.20207829530088   -1.89732241360900
C         3.12604471176922   -0.47715881296908   -0.60626620096217
N         4.37057898381776   -0.37994938859681   -0.24403530855234
O         4.54937243253429    0.40469806131263    0.88719513009860
H         1.56373933400671   -2.00737969500018    0.98224544245805
H         0.85214357140488   -1.61281409095176   -0.61904814774197
H         0.07120449389938   -1.02291612823167    0.78963049017131
H         2.32256228947188    0.43623875543307    1.14395943492487
H         1.50735185140473    3.18455077351296    0.42673519780297
H         4.16597179755811    1.91365114535866   -1.69515164886655
H         3.88964021357316    3.18032941344359   -2.91415325980439
H         3.98867802322234    1.49538852426181   -3.43270284735010
H         1.39644893906201    3.17099782934448   -4.33266745588047
H         0.36344098138798    3.17395918565505   -2.84159051766584
H         0.79416192495962    1.22699848994504   -5.11380536198241
H        -0.31808237995230    0.88230873550586   -3.69827604261116
H         0.62201740823070   -1.33440978849251   -4.23220920766367
H         3.91735005202707   -1.18314988167546   -2.38524728307135
H         2.68800606752234   -2.26279189004998   -1.78590152835889
H         5.52038284533697    0.42984325323053    0.98823878980001
