32
 energy: -49.288969173830 gnorm: 0.115929444539 xtb: 6.4.1 (79825abcba525fcdf90b791dcacef51065a7a4e7)
C         1.91389970440834   -1.03608627501251    1.32155839640900
C         2.32100900942895   -0.05467670993189    0.22167245640059
O         1.12449526909774    0.65185115951329   -0.13825214637941
C         1.06439341379832    1.82533025149433   -0.81588398647245
N         0.36552955931462    2.78969787462042   -0.32957750402449
C         1.76638378200186    1.97410317913278   -2.21337784568959
C         3.28702260752230    2.29261151892804   -2.22521010173491
C         1.10616250745126    2.93516834054112   -3.23095242521725
C         1.11555106065175    1.75785756735840   -4.22284420583551
N         1.51189910495905    0.84380996441245   -3.16284331016043
C         2.06786144148255   -0.43447331233295   -3.34557798067335
N         2.32522623643371   -0.94804430411807   -4.50718853017665
C         2.24289718795256   -1.25733587347079   -2.08319357578247
C         3.04782050454780   -0.78898516326996   -0.91590908654063
N         4.31184431071617   -1.09157998849503   -0.93028326319955
O         5.03289000253925   -0.68712432256902    0.18498788819351
H         2.70705483881343   -1.73301520194918    1.61475655731585
H         1.11953041175386   -1.63948367998068    0.87302218487618
H         1.37337858325168   -0.55836667891361    2.14606478905769
H         3.06602618805895    0.64043967388496    0.62519749099825
H        -0.09066261834037    2.55008657937967    0.56159571692828
H         3.46747201424456    3.25697063856792   -1.73270819797810
H         3.69614566821223    2.26831139373469   -3.24231711908573
H         3.87161276358498    1.57581090869895   -1.64236655028130
H         1.84240698059350    3.68757736411670   -3.52154711571893
H         0.11299614817077    3.20422664974121   -2.84816940409321
H         1.83460586846613    1.90279805021264   -5.04080166981218
H         0.09638933298195    1.61923985955802   -4.58520063094650
H         2.18762664206514   -0.32257935497861   -5.29773756076054
H         2.54037541000552   -2.25005440084019   -2.44985652048627
H         1.24773302714279   -1.28477904996244   -1.62911880966719
H         5.96897718553894   -0.71049984903117   -0.09231644502437
