32
 energy: -49.282236020476 gnorm: 0.135799383436 xtb: 6.4.1 (79825abcba525fcdf90b791dcacef51065a7a4e7)
C         2.02921765350526   -1.07127996202833    1.18962959396365
C         2.40988687993532    0.04926959335993    0.22106805254696
O         1.12021150691213    0.54401172229815   -0.16923972234914
C         1.00502231797534    1.64896396910397   -0.94748281808271
N        -0.11111703995336    2.28428710037442   -0.87327325659553
C         1.98275448572549    1.99656462751702   -2.12694309430220
C         3.36353011856216    2.50457335037859   -1.62762779230222
C         1.37219897078541    3.01428429815011   -3.12015255451702
C         1.53620065290274    1.91824158285996   -4.18869919100247
N         1.97314340237808    0.94808047200936   -3.19670870118661
C         1.71884111616549   -0.43427134503333   -3.16624571146032
N         1.48721211841987   -1.10093769646187   -4.25309199554355
C         2.08312567088659   -1.24241576806529   -1.93516731147772
C         3.06367419126142   -0.72045103107401   -0.93722722267363
N         4.31986265397491   -0.94065783872344   -1.18827687871920
O         5.29945917603602   -0.66723765850731   -0.24331493824469
H         2.87048088468773   -1.15019900841400    1.88735312538458
H         1.87813593101853   -1.97174861069310    0.58744501860740
H         1.15213808681031   -0.75832709827571    1.76667537308532
H         2.98016101776876    0.86397573556253    0.68162330695556
H        -0.69607323709136    1.82981770047662   -0.15843173345505
H         3.11670101266195    3.49138016764776   -1.21483689365661
H         4.10442475188072    2.49606548911340   -2.43600988875387
H         3.63984898024233    1.96415790226357   -0.71831244579226
H         1.94225701538599    3.88463025877900   -3.45204449914133
H         0.33213781975134    3.25039060426135   -2.85972743732471
H         2.23719529527076    2.12404902911018   -5.00927933700793
H         0.58352091610065    1.70860554639687   -4.67620480088767
H         1.40004234702176   -0.51001372150542   -5.07669269116413
H         2.25675015510772   -2.27779736209125   -2.26114977603400
H         1.14542516275451   -1.34636937090819   -1.38091093899865
H         6.11368235480992   -0.97967560618780   -0.68277650227316
