32
 energy: -49.294248488364 gnorm: 0.127876148163 xtb: 6.4.1 (79825abcba525fcdf90b791dcacef51065a7a4e7)
C         2.01353794077373   -0.93711597133541    1.34423041517458
C         2.51280663793903    0.06092842033126    0.29862534249080
O         1.36711443619033    0.91481877591292    0.16212217143785
C         0.97673941325789    1.55555273196413   -0.96788563810624
N        -0.20698541456371    2.02948474738261   -1.13845401303103
C         1.97127093550567    1.86977618236693   -2.14265523758784
C         3.28732486418977    2.48621124415948   -1.59316469414922
C         1.34861389427087    2.82305214529150   -3.19077715126814
C         1.78400476757392    1.80424845130779   -4.25964193382433
N         2.16269424293030    0.85321005688061   -3.22605741795363
C         1.83654883426249   -0.51431003743386   -3.22954835511249
N         1.40411180485249   -1.12369810754143   -4.28830954857465
C         1.84670315357940   -1.13753062535312   -1.84649098479791
C         2.96457817389864   -0.69383149109349   -0.96145226453023
N         4.20967558280736   -0.86956447672885   -1.29065855137898
O         5.19803441670733   -0.49330888392252   -0.39127011739110
H         2.81864565908895   -1.67433433294944    1.43952371110680
H         1.05064159110255   -1.39882241452802    1.10768546853655
H         1.92476425461260   -0.43873797188859    2.31579023829305
H         3.37272727205851    0.59595010695211    0.71738318724581
H        -0.72386265100649    1.91148454014535   -0.25605474858368
H         2.96330542490286    3.37871960025948   -1.04221200759871
H         3.88870150780896    2.79819971617877   -2.45542230341068
H         3.89725820949782    1.91455438361622   -0.88857608370734
H         1.75127176604093    3.82628866395883   -3.34570828359600
H         0.26440262972922    2.91501270178444   -3.04475037477340
H         2.62857594168348    2.10309976869512   -4.89563674348033
H         0.99110444756551    1.28286759997249   -4.79693028397396
H         1.27702412626664   -0.57128552404688   -5.13317455361481
H         1.98785208314945   -2.22563311195615   -1.91383371290829
H         0.84331319487581   -0.99861012091711   -1.43272970517301
H         5.95502637666470   -0.88305508838028   -0.86956332499757
