32
 energy: -49.284303924528 gnorm: 0.136914642294 xtb: 6.4.1 (79825abcba525fcdf90b791dcacef51065a7a4e7)
C         2.14123374699034   -0.31690277251181    1.64631292801643
C         2.44931664555348    0.34206060260609    0.30113486538540
O         1.20674849180150    0.99779387739957    0.00717779082697
C         1.00171222437585    1.76728513853877   -1.09086303665420
N        -0.00451951821875    2.56805895544555   -1.12504751911772
C         2.00591496332795    1.85259293499742   -2.29594078861024
C         3.34494346277081    2.59913872995969   -2.04374633419684
C         1.32970646060246    2.67979869255522   -3.41552514004636
C         1.70115485003157    1.54514009289981   -4.38741714107448
N         2.06134763326496    0.70433479139514   -3.25627422558849
C         1.88312504354678   -0.67963645300901   -3.08494260393412
N         1.96520557256718   -1.53269447398586   -4.05699490867258
C         1.73147720585139   -1.26330919503883   -1.69293549768026
C         2.77838101066890   -0.66450359180890   -0.81246327779999
N         3.89474678473680   -1.30751186739715   -0.98507345007726
O         4.95270387335475   -0.87510493116830   -0.19699219469719
H         2.93021938020915   -0.94727115463758    2.07164519355856
H         1.21128748873739   -0.89245963591339    1.63114755518122
H         1.95470197665924    0.46312530498438    2.39260508822262
H         3.21130407724399    1.08908315085635    0.55093940611954
H        -0.59967376306967    2.33654518372922   -0.31763969798567
H         3.98721212498001    2.53043812425073   -2.93137227682756
H         4.03494105838599    2.07549025341652   -1.37130715768748
H         3.14692716452989    3.65010031015942   -1.81675586807213
H         1.74877024267890    3.62592951696553   -3.76458465586011
H         0.23863137863875    2.68453232570165   -3.29375735886853
H         2.63465649863174    1.65146605025967   -4.95695330663053
H         0.94489274982277    1.14380527536584   -5.06284713270187
H         2.11997822047129   -1.04004846768213   -4.93360951355663
H         1.79481583866576   -2.35896834411257   -1.75573947287339
H         0.74607177575768   -1.05717319577143   -1.26424818706439
H         5.71862347795229   -1.25804505320812   -0.66648910224945
