32
 energy: -49.285186977548 gnorm: 0.121854882223 xtb: 6.4.1 (79825abcba525fcdf90b791dcacef51065a7a4e7)
C         2.26762715631519   -0.37115852297418    1.52965898652595
C         2.46014087313956    0.47289961598400    0.26904162123875
O         1.22652801450370    1.17851013646775    0.06733492547839
C         0.90200755395309    1.78170497774135   -1.10343096327789
N        -0.20234929686389    2.41218726914310   -1.29784705276893
C         1.92590236241082    1.87761541576873   -2.29101403312375
C         3.46114432749053    2.00428662163936   -2.08873578847849
C         1.33300404862478    2.79709063340910   -3.38556111711003
C         1.63124316087309    1.66451354346332   -4.38472109945817
N         1.68803636359190    0.75348514028700   -3.25203471623684
C         1.91922510143213   -0.62968696657242   -3.15263212172983
N         2.05524643630781   -1.54718756202909   -4.05763030077157
C         1.78332477387463   -1.16095497247667   -1.73819226837684
C         2.79623507857036   -0.55223631814765   -0.82534982029642
N         3.93554841482068   -1.17537888594474   -0.76891493427249
O         4.98695815035944   -0.73779647288981    0.02504993506389
H         3.21910533117204   -0.91209517155996    1.58301618462369
H         1.43143439669892   -1.07308695149169    1.46352365205705
H         2.20930703288584    0.21207361929660    2.45520148678163
H         3.23905235952409    1.22385807736773    0.44347818633341
H        -0.82654760192968    2.48025242096971   -0.48209084338616
H         3.86670149013852    2.37035426750059   -3.04090514685786
H         3.87736410410358    1.04900606591036   -1.74715269022096
H         3.71199071896870    2.60484950307464   -1.21029644620064
H         1.78443693930508    3.78948973310564   -3.44859210028198
H         0.26233865067763    2.90900171223367   -3.17004743058354
H         2.61676585562934    1.80332665994531   -4.85010041158427
H         0.84115241532451    1.50264078944575   -5.11872483848974
H         2.15146165340681   -1.24651284593617   -5.02481443982528
H         1.96601620608843   -2.24300711986346   -1.80309278133941
H         0.72798268156524   -0.97549896370105   -1.51649912684716
H         5.73148363099087   -1.17567664553429   -0.43063206627911
