32
 energy: -49.287088685537 gnorm: 0.130846497768 xtb: 6.4.1 (79825abcba525fcdf90b791dcacef51065a7a4e7)
C         2.14158325720261   -0.85829182943994    1.42420373106964
C         2.49817097991518    0.04335540696329    0.24160943777514
O         1.31186793084225    0.84263519841667    0.12240641304495
C         1.00328834981925    1.62196136475618   -0.94402674477280
N        -0.19718090222953    2.07364897004009   -1.04282694396491
C         1.94911585682203    1.92783683394670   -2.16048203062142
C         3.41317051873694    2.21124180536193   -1.72441372569648
C         1.44181123178127    2.93181401014761   -3.22334055435095
C         1.66637020318479    1.87042552953817   -4.31559778752962
N         1.94339842853571    0.90958250508855   -3.25908809897567
C         1.74473566681260   -0.48218844074187   -3.25811843577486
N         1.45712896705964   -1.12727449719909   -4.34461612423324
C         1.93431835399360   -1.22501812920962   -1.94906644234361
C         2.95687941548380   -0.83446785764545   -0.93336651574515
N         4.23435429655136   -0.98946479545922   -1.11656119302343
O         5.00907895624827   -0.25090641775468   -0.23244907358848
H         3.02275245699778   -1.48957537605528    1.58480288520162
H         1.28487026086742   -1.53099178678687    1.32514143593447
H         1.96898752597674   -0.27499543778709    2.33533814499395
H         3.31623945763965    0.68132631607402    0.59491796337099
H        -0.82743075297139    1.85446986669634   -0.25895180738310
H         3.85305394632545    1.24164086398668   -1.45704654049974
H         3.40447357158907    2.79075309588676   -0.79351636934859
H         3.89521828732581    2.75643815503689   -2.54028520036905
H         2.06003079325609    3.83123670459562   -3.26160182197803
H         0.39094967863412    3.21918438423414   -3.08768329866651
H         2.56581293889831    2.08861460885606   -4.90762672556536
H         0.77783356527597    1.51658156454673   -4.83952981180651
H         1.07020953071710   -0.48574765594088   -5.03297975136682
H         2.11349770694145   -2.27111576129876   -2.23542213556465
H         0.89453215301898   -1.21209676066524   -1.60852803926594
H         5.91549501697176   -0.44931277621411   -0.53699490732834
