32
 energy: -49.287433270803 gnorm: 0.123191585670 xtb: 6.4.1 (79825abcba525fcdf90b791dcacef51065a7a4e7)
C         1.74923588670020   -0.59167400396716    1.43807095727362
C         2.37821717154510    0.17116538128141    0.27140458155056
O         1.26264993096194    1.01140556955946   -0.06007489695386
C         1.13730285338675    1.90444664888163   -1.07329553869279
N         0.09286141279939    2.64788330757835   -1.17984890724950
C         2.08985238286299    1.89144436035032   -2.32245257446351
C         3.55624598307206    2.07578780167192   -1.84324771520438
C         1.55322733778240    2.72504016698053   -3.51079090390329
C         1.42445748160663    1.43204305594115   -4.33636639840375
N         1.90237067342403    0.68155084035378   -3.18548104452135
C         1.84125665372232   -0.71184202249098   -3.00880164222013
N         1.46879461567369   -1.45292443901056   -4.00449223849429
C         1.99902860027023   -1.47868106493685   -1.70940924817198
C         2.94977778394863   -0.73558896576099   -0.82980868386153
N         4.23347071556342   -0.76886025341640   -1.03118374719509
O         5.04567648827526   -0.09428343323789   -0.12974660882913
H         2.49332936046050   -1.06659128379605    2.08733873093260
H         1.11208090784842   -1.42373563253022    1.12501710788335
H         1.17966950837411    0.08536532755780    2.08413734235005
H         3.14650983630470    0.80825057430558    0.72408402211547
H        -0.57927456835140    2.55338407157711   -0.40588656687259
H         4.04450793309249    1.12641829894353   -2.09899454342712
H         3.77493969841057    2.43058185392908   -0.82896319368422
H         4.14027977547554    2.79373071924508   -2.42524244489708
H         2.25092188143635    3.42938758673833   -3.96876204599327
H         0.59132424269429    3.19186977041762   -3.26157777178816
H         2.09874295742624    1.43377191678366   -5.20379828556909
H         0.37271190497309    1.34164762791498   -4.60998580114075
H         1.20246997365752   -0.93325246780533   -4.83763091184960
H         2.30311408358313   -2.49698339162312   -1.99050971781682
H         0.98860842044934   -1.49009650461260   -1.28963613226005
H         5.94006188516975   -0.08832823789883   -0.52184687671239
