32
 energy: -49.284024798525 gnorm: 0.139455453616 xtb: 6.4.1 (79825abcba525fcdf90b791dcacef51065a7a4e7)
C         2.34225125759682   -0.80963553722221    1.42713590982056
C         2.41611636343610    0.10801961451324    0.20602789433711
O         1.11351371895461    0.69392970793544    0.06352102689636
C         0.93993775558355    1.57382153959152   -0.95408010438932
N        -0.15603862208085    2.22995416952363   -1.10651156476978
C         1.95891767557126    1.90362463260334   -2.10335064371125
C         3.32153144490289    2.46354911722330   -1.60969260022241
C         1.39009031142074    2.88900306948246   -3.15237931706864
C         1.54755480288864    1.76083454576071   -4.18796553604543
N         2.09480300782913    0.86864581930859   -3.17767083656341
C         1.86545812733548   -0.51448209270805   -3.28184528352377
N         1.71360432571946   -1.21078693615108   -4.36417187410618
C         1.82070001018506   -1.16273988911861   -1.91103776599963
C         2.90507901452903   -0.75110697610196   -0.97056577986108
N         4.14743558273282   -0.95153391883326   -1.29599724330617
O         5.01761972686399   -0.58956622050721   -0.27664452592795
H         3.36954759889111   -1.00285452092819    1.75591975242844
H         1.55758601852953   -1.55830303175936    1.28538549658849
H         2.06321860342896   -0.24658339135601    2.32452264318613
H         3.22896908206591    0.80472666629505    0.44041983738122
H        -0.87685466065313    1.99200485146655   -0.41115629894295
H         3.20815556407449    3.36152704861008   -0.98849202045963
H         3.85705988371105    2.64746216772272   -2.54876881984817
H         3.87284781244546    1.66510930118188   -1.10590743808645
H         1.99873528540677    3.77477371808638   -3.34624056552956
H         0.39246222954812    3.27911253369212   -2.91186436699384
H         2.17677546185620    2.06119610205266   -5.03706286363979
H         0.61987947572603    1.33862938324853   -4.57573991057389
H         1.79899522095729   -0.71978351486109   -5.25115093329768
H         1.97686692816459   -2.21901549021871   -2.17241650382925
H         0.86762866727146   -0.92563210421284   -1.42862338598882
H         5.81197962867287   -1.04428263458852   -0.61712749654742
