32
 energy: -49.291781863367 gnorm: 0.132233377026 xtb: 6.4.1 (79825abcba525fcdf90b791dcacef51065a7a4e7)
C         2.05835993652565   -1.20934770546752    1.22940205253262
C         2.43360194318148   -0.07580160684791    0.27393436993947
O         1.21238138916077    0.63203790541523    0.01325051064795
C         1.03748602128750    1.49225467661135   -1.02081381921210
N        -0.08838359316137    2.11458196091906   -1.02681169819603
C         2.06675873613626    1.97041900132948   -2.10703180339061
C         3.37694625173932    2.54946329785302   -1.50532891463102
C         1.38165612679764    2.93200436347995   -3.10752388552279
C         1.64599966587743    1.94445294750023   -4.25855072980965
N         2.16462622882860    1.02089647519599   -3.26143156259682
C         1.79504917659486   -0.33545296698978   -3.27637229943725
N         1.26097201158993   -1.01163132810838   -4.24429548254846
C         2.00044128755737   -1.18398091893626   -2.03573975502659
C         2.98126828401680   -0.70197280469289   -1.01816734676013
N         4.25028885473982   -0.92088767574510   -1.19477285188542
O         5.08038552246655   -0.57940572792873   -0.13569277009359
H         2.93390342835659   -1.86745913951562    1.26231251098886
H         1.14487025063131   -1.73057965665634    0.92915285557389
H         1.85111854068881   -0.71987065874361    2.18734417776894
H         3.19608403416341    0.48939928691691    0.82187491909095
H        -0.70722595455521    1.74531975381355   -0.29169664321103
H         4.01189572327390    2.67474799033902   -2.39203717584070
H         3.87011412840578    1.90383947092768   -0.76882760838364
H         3.12248081718056    3.44389962262737   -0.93044946944070
H         1.93449655160663    3.85342768788107   -3.30237525019314
H         0.34480018256495    3.24953486954513   -2.93606323730593
H         2.52122022404977    2.21591825062238   -4.86468400256496
H         0.79845001744268    1.69254968528506   -4.89683907575257
H         1.04208642884265   -0.43558928087445   -5.05384627497181
H         2.25433976206938   -2.19357197287180   -2.38884958948247
H         1.02478176880715   -1.22812117801816   -1.54235464498198
H         5.86681914050050   -0.37550719982234   -0.67758840473339
