32
 energy: -49.288169883423 gnorm: 0.120328321910 xtb: 6.4.1 (79825abcba525fcdf90b791dcacef51065a7a4e7)
C         2.22698661914758   -0.90595451161475    1.36214527531893
C         2.44247315470353    0.07456697251729    0.20854439893386
O         1.22866583468959    0.80898573267331   -0.00979788083706
C         0.92351260245127    1.74619972165705   -0.94165718612471
N        -0.20344849705393    2.35592054458707   -0.82716352742014
C         1.86001369197857    2.03448327183848   -2.16957055859375
C         3.30959380939995    2.33132509713764   -1.69572204940248
C         1.35472528123415    2.98947064125894   -3.27757739139859
C         1.18861383941584    1.81010845542947   -4.25303109453204
N         1.89300470988495    1.01073181501294   -3.26257303217254
C         1.98743092297286   -0.39112719256639   -3.31124772309817
N         1.85033087290357   -1.05421301983477   -4.41616927623553
C         2.04727727446679   -1.18009022396612   -2.01690988339655
C         3.00077273035578   -0.78153568294478   -0.93903803927780
N         4.22416125012535   -1.21586993286667   -1.00385100281341
O         5.05899741046021   -0.72675669227113   -0.00829194237985
H         3.17101697151594   -1.40109079310943    1.61595015852559
H         1.55280114900993   -1.65660601912070    0.93989889889440
H         1.79486359091576   -0.49885991761229    2.28286975432474
H         3.16602726251261    0.86136091879405    0.45040092053180
H        -0.65903696261489    2.11440794444836    0.06380527236269
H         3.84129430363888    1.51520556219600   -1.18940978715660
H         3.50442888119360    3.26976881582374   -1.16295424387479
H         3.87955782498490    2.33217100487568   -2.62867204016566
H         2.18109246929408    3.55041347804184   -3.71925707134138
H         0.46696794793231    3.55087169534722   -2.95818672048588
H         1.74889820760306    1.89120541376110   -5.19462903607059
H         0.16457317224163    1.49507609869175   -4.45626248878771
H         1.89936901565610   -0.48783110622871   -5.25991960008129
H         2.35180469870047   -2.20014691289301   -2.29108589880781
H         1.02357786466419   -1.13708557420551   -1.63288014755430
H         5.83488295406297   -1.26391461032095   -0.25962104667368
