32
 energy: -49.271800785190 gnorm: 0.111263424024 xtb: 6.4.1 (79825abcba525fcdf90b791dcacef51065a7a4e7)
C         1.22632848881910   -0.85114871777948    0.67593543211191
C         2.33264151349691    0.12075924252190    0.26348155543103
O         1.70568615023850    1.40008290128407    0.08846607395178
C         1.22254275715287    1.99189906209520   -1.03232669319627
N         0.20808932545229    2.76878018265323   -0.88316382642530
C         2.03531657258188    1.79329547493954   -2.36193878468497
C         3.57963838239338    1.81656338926606   -2.19324158334363
C         1.56709463202562    2.68956661084632   -3.53346030529202
C         0.81681735176759    1.45779547118607   -4.07181145841655
N         1.38889340905704    0.61881209243987   -3.03017209713048
C         1.84340295019590   -0.70847489412103   -3.12086136415623
N         1.57499334481051   -1.53946550011210   -4.07832768757939
C         2.65114007977502   -1.23888785435668   -1.95142667350353
C         3.24470063375506   -0.43670381704292   -0.84057401487210
N         4.47550968010045   -0.69446428586684   -0.51164384780391
O         5.11495183293452    0.07341525062522    0.45209665830434
H         0.80936812024675   -0.52533731812923    1.63549842758951
H         1.53463263990882   -1.89938862538600    0.72530520066942
H         0.41964814761158   -0.61157305798870   -0.02553460929579
H         3.06292630266399    0.23152115372860    1.07310230838242
H        -0.37503182986247    2.58926474233935   -0.05403264898969
H         3.89666547197958    1.77413270356127   -1.14309774442846
H         3.85431276311530    2.77033722434443   -2.65944788998368
H         4.04515025859407    0.98237650235210   -2.72492410261739
H         2.36993237290178    3.09012648038666   -4.15605478586839
H         0.90170707520387    3.49296753073126   -3.19126008378764
H         1.10054110246714    1.09154748751792   -5.06803694565632
H        -0.26578206305328    1.58729933718235   -4.05144172097840
H         0.92792599548153   -1.13137239827221   -4.74905243530207
H         3.41674189785340   -1.81473425288298   -2.49057402279717
H         1.95706805052489   -1.85487222893617   -1.37167156047431
H         6.00750908287222   -0.32085946876526    0.49200058990021
