32
 energy: -49.290480494567 gnorm: 0.120398082729 xtb: 6.4.1 (79825abcba525fcdf90b791dcacef51065a7a4e7)
C         2.10744715331530   -1.06975396039115    1.28842713616732
C         2.40299068958385   -0.10493985012151    0.13932332691537
O         1.25662438524588    0.75157520267466    0.02707918547605
C         1.01416024143425    1.74363011517137   -0.86560693590255
N         0.00293178958495    2.50993497715744   -0.65323113413967
C         1.89092804304471    2.02484919063867   -2.13844117674546
C         3.33560075510855    2.42017752275920   -1.72544448977374
C         1.17041917423896    3.00191460713418   -3.09823622616881
C         1.24193642257134    1.87877444591447   -4.14868354135604
N         1.88455137479349    0.97515254791390   -3.20704126425825
C         2.04790608554025   -0.41167265487280   -3.36990716102320
N         2.27355656553361   -0.92957115899496   -4.53618065943606
C         1.93048534123504   -1.31829151461588   -2.15928363648935
C         2.89071222325387   -0.82578120743506   -1.12719595556325
N         4.14925887416541   -1.15072210935830   -1.12676262448834
O         4.90804479543357   -0.73829174222898   -0.03980993926001
H         2.97387798032583   -1.72883350271275    1.41365469697097
H         1.21335940925811   -1.69330570036612    1.19850458236486
H         2.02195519712390   -0.51192589259677    2.22742067296611
H         3.21779222097882    0.50622700324403    0.54385192525763
H        -0.46938840016442    2.33402791149800    0.24436840361737
H         3.58541199913518    3.37103215020850   -2.21388941553988
H         3.97760641229741    1.62312225369602   -2.11915821578791
H         3.40616476771387    2.53668853124528   -0.64068586323025
H         1.66802411214580    3.95509081950049   -3.28919424010552
H         0.11698183234643    3.22246603924242   -2.88162260993355
H         1.89340295197308    2.09259457252991   -5.00715560837183
H         0.29315138313084    1.58183158380838   -4.59683480660757
H         2.30807106310269   -0.32118315765799   -5.35090798039008
H         2.40896468794716   -2.27023386477889   -2.43000189247849
H         0.97664815178214   -1.50859074487078   -1.65801571549692
H         5.83653243485336   -0.89093104409751   -0.30118183983081
