32
 energy: -49.284632281306 gnorm: 0.133056002170 xtb: 6.4.1 (79825abcba525fcdf90b791dcacef51065a7a4e7)
C         1.90428179211157   -1.36761685733105    1.14821786709660
C         2.38354308974315   -0.19907320008012    0.28597304684696
O         1.25108674854716    0.63338795999207   -0.00544337999902
C         1.11941184280380    1.65641602874803   -0.88630977099267
N        -0.07701496267296    2.11088928865980   -1.01641184001015
C         2.11077627256176    1.95202377956956   -2.06856420764792
C         3.50074289576435    2.31460648666287   -1.47657050554927
C         1.57364490705161    2.96199161954369   -3.11089392968696
C         1.52801195533739    1.85544790040808   -4.18022864498381
N         2.12776701790827    0.96691714804530   -3.19687537299087
C         1.81432026012034   -0.40320164741844   -3.22881005782952
N         1.39036119076352   -1.00139033642466   -4.29734170049730
C         1.93757471920539   -1.25515131689407   -1.97967243626386
C         2.96459060079065   -0.71505196418667   -1.03981175685119
N         4.23019559945198   -0.62983504010990   -1.32355194544372
O         5.03576892367933   -0.03332054686413   -0.36306087538718
H         2.67751236803816   -2.08743164312224    1.43933864612947
H         1.11097808314281   -1.99494282368021    0.73177208940486
H         1.56270493825015   -1.01916070232508    2.12908149005992
H         3.11156339966857    0.49435308637113    0.72211092646064
H        -0.76526050545360    1.88624768251828   -0.28458617602124
H         4.30479051046350    1.76474034621784   -1.98279503789658
H         3.45788220725418    2.02992317845203   -0.41846028586981
H         3.54272519025379    3.39340497874892   -1.64886872176938
H         2.28394093250313    3.76130558608752   -3.33269851039248
H         0.60436066434598    3.36080769390265   -2.78420076698851
H         2.12973306398419    1.99842630435364   -5.08829849705269
H         0.46302005366105    1.72967278452510   -4.37816939670910
H         1.25843931818248   -0.37402898182322   -5.08735573309610
H         2.08015588889876   -2.32246153651096   -2.20090666064986
H         1.00741112427857   -1.07422818070569   -1.43254244208022
H         5.93231078145809   -0.12493020991309   -0.73925722053570
