32
 energy: -49.289087266135 gnorm: 0.124824428172 xtb: 6.4.1 (79825abcba525fcdf90b791dcacef51065a7a4e7)
C         1.93030814143590   -1.16766023644177    1.11804359301068
C         2.34408447609676   -0.05284969313087    0.15646238783228
O         1.15716069654007    0.68135077616534   -0.17899864430602
C         1.07957077912985    1.83396904932965   -0.88984408748971
N         0.11519959735660    2.63816034158811   -0.61024763308741
C         2.00313878725107    1.99556841584899   -2.15032840161114
C         3.43773944468858    2.41770920216394   -1.72884521605817
C         1.27741679183497    2.85987400943315   -3.20924285192664
C         1.48598794688715    1.71506057092169   -4.21716068849238
N         1.94961894292797    0.86499277314176   -3.13152367700257
C         1.77543260285669   -0.53005320972857   -3.13143558671916
N         1.50794824703014   -1.17533758562876   -4.22294420440299
C         2.10877065351529   -1.43880256880762   -1.96335380861397
C         3.03304692531080   -0.69069552495115   -1.06010618478104
N         4.31476463256803   -0.89416810836039   -1.13307927301772
O         5.08248791014185   -0.13667526448389   -0.25893593121207
H         2.78657645871957   -1.55231368894252    1.68338990562892
H         1.46467876681186   -2.07213278657794    0.71627945413935
H         1.30252684980666   -0.75835664757631    1.91713752495650
H         3.00723071637088    0.66344343526814    0.65469030835080
H        -0.39297230005755    2.34712782746608    0.23637860262347
H         3.33815995021448    3.25416120145866   -1.02489877139555
H         3.99594906930528    2.82952606954222   -2.57813182012528
H         3.85621152627861    1.55125206005909   -1.20981871644069
H         1.81650695955078    3.72814255242362   -3.59409614632791
H         0.24533481120834    3.18757806565505   -3.02837976271318
H         2.25530334070900    1.98007994403062   -4.95541574411122
H         0.60555192786475    1.28245546406761   -4.69349346238098
H         1.33099148359835   -0.53045359331273   -4.98970281261916
H         2.59663962960227   -2.35895223464352   -2.31511159574979
H         1.13836500703514   -1.67706763955452   -1.51744871125380
H         5.93206905706002   -0.61151164334295   -0.33922049938758
