32
 energy: -49.287397236185 gnorm: 0.124294456195 xtb: 6.4.1 (79825abcba525fcdf90b791dcacef51065a7a4e7)
C         1.85773470814648   -0.89030540180928    1.32016335772398
C         2.43367156309592    0.14345986404690    0.35151589222083
O         1.31072723620501    0.94869824914852   -0.03701935999153
C         1.10515053689103    1.71472428299303   -1.13737959059442
N        -0.08388674119648    2.14707707399929   -1.37012625021415
C         2.17537287931360    1.86523719417177   -2.27750367707075
C         3.57099190283923    2.27451178140576   -1.73099491453375
C         1.70590154348311    2.86435987419375   -3.36209896014816
C         1.41147471102303    1.66110526810994   -4.27614999548496
N         2.08423721247872    0.79439696905899   -3.32096204062394
C         1.68722759084022   -0.53278870949674   -3.08126278407044
N         0.99453871383468   -1.20992741158156   -3.94207411907363
C         2.04063872888564   -1.21468339404279   -1.77302929311669
C         3.03966984232378   -0.63780459964794   -0.82489709490956
N         4.30927352931862   -0.83602634572848   -1.02070571462654
O         5.19031698767676   -0.16151340469353   -0.18637021637264
H         2.59261062040488   -1.24516204497076    2.05146651957233
H         1.40877075169790   -1.70996564539935    0.75193437029372
H         1.07560026540124   -0.32280433358068    1.83630107203118
H         3.21947092624019    0.73032375808455    0.84057616461780
H        -0.72479736059034    1.71643633125894   -0.68932031818505
H         4.37036675491616    1.69099439340513   -2.20598535658992
H         3.52545332975625    2.05182400016361   -0.65823434014759
H         3.74581197091950    3.32079415450001   -1.99554454983816
H         2.35110377393484    3.66447139348073   -3.73109240882971
H         0.71593202816096    3.18940628352687   -3.01626688805826
H         1.86491697788624    1.69920175461824   -5.27617036540322
H         0.36161886715300    1.38847408109028   -4.38876712806448
H         0.72445191743128   -0.72564485495708   -4.79508721632156
H         2.28813241192833   -2.23364227149324   -2.10302135356635
H         1.06164072138386   -1.31009484943764   -1.29370866390085
H         6.03676896284769   -0.64519716665173   -0.12916538441683
