32
 energy: -49.288896629873 gnorm: 0.117875708135 xtb: 6.4.1 (79825abcba525fcdf90b791dcacef51065a7a4e7)
C         2.02149844681134   -0.80503614302172    1.44987638694493
C         2.30535929514245   -0.01993678583322    0.16859037505329
O         1.06134353382228    0.60233572767934   -0.18577415052811
C         1.00068480905818    1.79212725828442   -0.83428551548017
N         0.14195939002353    2.68880784130273   -0.49744103286378
C         1.84819338050937    1.93268937673672   -2.14953625301036
C         3.34439933470837    2.24916692118940   -1.87542000323130
C         1.27771894474224    2.94526145345229   -3.17142329330879
C         1.22674504939331    1.79529867405467   -4.19366855328209
N         1.63409559207211    0.85171270953172   -3.16416005375666
C         1.98127948544606   -0.50526117800373   -3.28490535767858
N         2.23787036901171   -1.11744870373007   -4.39788264096843
C         2.08442556547224   -1.39824001457977   -2.06289701250027
C         2.91219266261914   -0.92804208844923   -0.91245249397519
N         4.18532834446835   -1.06638982257420   -1.13496518197005
O         5.07135483562364   -0.45111268264055   -0.26105893871779
H         2.89945332296920   -1.09772752245191    2.03664478735833
H         1.30997254460227   -1.62182405503812    1.29860136356487
H         1.57065310835666   -0.03985087980836    2.09129659895127
H         3.11141432389962    0.70833020481136    0.31340863975701
H        -0.44473993459276    2.38368122837816    0.29147990344245
H         3.53709633769562    3.04752586045597   -1.14699739840449
H         3.89038414478833    2.50942053373932   -2.79010437859820
H         3.82018458898304    1.30740206223645   -1.58912868369825
H         1.93476470057152    3.78728870773644   -3.39924233124912
H         0.25628188740672    3.31177216822004   -3.00519795113026
H         2.04537690747661    1.83715225988831   -4.92523682456030
H         0.25166506992509    1.65081338978573   -4.66009186655283
H         2.24048596253028   -0.49282228870473   -5.20096596420273
H         2.51407265819206   -2.30888046191605   -2.50398934556566
H         1.11433506212704   -1.54743077679584   -1.57920779421402
H         5.98422550155848   -0.67664631662774   -0.52469704374788
