32
 energy: -49.287829923553 gnorm: 0.121678914724 xtb: 6.4.1 (79825abcba525fcdf90b791dcacef51065a7a4e7)
C         2.28706048275299   -0.85879588208349    1.32161089898109
C         2.45555857841108    0.08301053904309    0.12860592259885
O         1.19092012934505    0.74402678975685   -0.02669892097767
C         0.92832894388686    1.72419348327045   -0.92679304493054
N        -0.20421505778113    2.33116727488343   -0.86485372720795
C         1.89417069636293    1.93443824932378   -2.14780072716592
C         3.26146983528801    2.51305272727937   -1.68994886015867
C         1.34215974673969    2.94209069253555   -3.18458269744866
C         1.62527415786611    1.84376489015944   -4.22550765361616
N         2.06196319086903    0.89481967736105   -3.21309352423847
C         1.75470914487169   -0.47704956982838   -3.22108944319129
N         1.73899575184041   -1.22888162187564   -4.27647209094222
C         1.83032239717535   -1.24516321415652   -1.91508837765897
C         2.95290716425484   -0.74246770020526   -1.06838434928078
N         4.16534685500636   -1.20292522524977   -1.15495980182538
O         5.05004413920826   -0.69245781063798   -0.21471794107069
H         3.23221059295851   -1.39586835541380    1.45950430444068
H         1.50169149806806   -1.61103599027152    1.20487996467887
H         1.95264691981931   -0.25037172033266    2.16906443698991
H         3.27093111005534    0.76315175656064    0.39998277920268
H        -0.66314637314911    2.39981663358393    0.05404990844063
H         4.00006351247555    1.74749958291526   -1.41880982072056
H         3.09615816750492    3.03181962258676   -0.73809182204443
H         3.70424036447303    3.21154985653485   -2.40500926607738
H         1.90214358410326    3.86866790729545   -3.32773749573543
H         0.27106044237333    3.15442053780216   -3.07075413717579
H         2.40384593142740    2.00190160315785   -4.98440208037338
H         0.79242426800363    1.39332812527273   -4.76650253363454
H         1.83064038345909   -0.91104857779079   -5.23860058126576
H         1.99423175451933   -2.28310494405527   -2.23794404257383
H         0.92647239655947   -1.13037491074402   -1.30914486124352
H         5.92849029291803   -0.84275530449072   -0.61402526882624
