32
 energy: -49.282266995964 gnorm: 0.124994826250 xtb: 6.4.1 (79825abcba525fcdf90b791dcacef51065a7a4e7)
C         2.27273859151994   -0.12940640688058    1.64188698208027
C         2.52494708738133    0.43076133937389    0.24143891593946
O         1.39418583573687    1.27687169869827   -0.01517115329217
C         0.86639356585246    1.78391248401184   -1.15718484381441
N        -0.38598479323773    2.02663661510299   -1.32314575790607
C         1.83980832526653    1.94566894030671   -2.37956428273171
C         3.17326067180839    2.52500279291326   -1.83165267514817
C         1.32541109529692    2.65630302015258   -3.65447254629523
C         1.68842561485795    1.42118044488446   -4.49868269955591
N         2.13905217448016    0.78090853756840   -3.27264669359142
C         2.07357318620890   -0.60163797661772   -3.02612717331621
N         2.23447354339425   -1.54528115506325   -3.89961415867256
C         1.62554484732011   -1.08602662749109   -1.66011363844211
C         2.73215267545859   -0.75514643599617   -0.71367586033854
N         3.90128774591213   -1.28548450671581   -0.91712404348617
O         4.95325194600218   -0.88597784226812   -0.10405161935607
H         2.33316734789195    0.66059052001107    2.39887006225086
H         3.17876081051493   -0.73346390324749    1.74452234621115
H         1.39871444025910   -0.78746575184073    1.69871628851574
H         3.42612269648154    1.05260915401773    0.28895369283907
H        -0.97476374915691    1.93747346409982   -0.48344113418058
H         3.59768250702986    3.06738919554960   -2.68651624624811
H         3.96141387033255    1.80793286425138   -1.57260806676575
H         3.09909088935829    3.23844785423496   -1.00657670548297
H         1.82732117777269    3.62380695150435   -3.72261170737825
H         0.23599309579881    2.76120684820449   -3.74083361454149
H         2.48884799865283    1.40503578998062   -5.25112228817843
H         0.84875821674818    0.84419695655686   -4.88759964783124
H         2.64501913883753   -1.32001858032924   -4.80283999249774
H         1.51504450171759   -2.17124228031210   -1.79620830567615
H         0.70175087403932   -0.55737422420807   -1.40630257454151
H         5.62118697592103   -1.59838915235184   -0.09803133965655
