32
 energy: -49.296933562565 gnorm: 0.117644725967 xtb: 6.4.1 (79825abcba525fcdf90b791dcacef51065a7a4e7)
C         2.27247658997945   -0.88287686767962    1.38789709623711
C         2.56839991568186    0.09863302851092    0.25311980069333
O         1.36136426706406    0.85446165928175    0.07378632949573
C         0.96037762740937    1.59933513790224   -0.98650774511325
N        -0.27360917410115    1.95496454818272   -1.06209802378115
C         1.89763053448565    2.09597139043932   -2.14530987106220
C         3.29885972119605    2.47428390911254   -1.59090352998231
C         1.15505761690691    3.00396798579319   -3.15482660906191
C         1.44208217253143    2.01083730316671   -4.29557480830077
N         2.01173435412145    1.13188194155125   -3.28606475629792
C         1.97727445138276   -0.27250447155860   -3.34088736450800
N         2.04177309137648   -1.00981478922762   -4.40462806482240
C         1.91783869203756   -0.97329764658782   -1.99674786191803
C         2.96391143477021   -0.77111058351294   -0.95048823343025
N         4.08467152473719   -1.41196840618904   -1.10123468536673
O         4.98565758913133   -1.18154875939397   -0.07048160374190
H         3.18244745449731   -1.45268362852386    1.60708523773659
H         1.55449535425995   -1.64965932486185    1.08319504673293
H         1.89671106420413   -0.44418166560152    2.31877661237919
H         3.38391116510160    0.77924163633122    0.52290333231740
H        -0.88009153186580    1.69841269276366   -0.27084908772391
H         3.93561851605684    1.59623638105523   -1.76025346605320
H         3.25545546285765    2.78493914859399   -0.54014749326299
H         3.67367612743462    3.34415153193993   -2.13688736643282
H         1.62880617973068    3.98577795663409   -3.21988055326108
H         0.07048368449130    3.00990956089280   -2.98465401501739
H         2.18017031012647    2.30289070191774   -5.05520148342818
H         0.57221841747120    1.56144393792019   -4.77577302171928
H         2.00004495784668   -0.49967897228335   -5.28390505614260
H         1.74018369789267   -2.02237117067456   -2.27298783866942
H         0.94239834832897   -0.61648806010343   -1.65252151986761
H         5.85834250274939   -1.26393458791816   -0.50098937344333
