32
 energy: -49.284521286472 gnorm: 0.140974574587 xtb: 6.4.1 (79825abcba525fcdf90b791dcacef51065a7a4e7)
C         2.02853500049170   -0.93451839419396    1.32865083261393
C         2.52542232002434    0.00673473756351    0.23056280190007
O         1.36373969428432    0.81889276762549    0.00414445685397
C         0.95324640938073    1.70979285265711   -0.93268134951838
N        -0.23585338653543    2.20065977689159   -0.93172473951978
C         1.92916829341567    2.05951416048242   -2.11301367652848
C         3.33529439673649    2.41936246873167   -1.55871362423686
C         1.35214327246732    2.96587985603970   -3.22680886297068
C         1.45031904815055    1.75759764916666   -4.17571018931681
N         1.98208234512703    0.93448009881380   -3.10059066255414
C         1.79291795594676   -0.44504592163531   -3.29454681384389
N         1.79268677014458   -1.05450366500212   -4.43817790174255
C         2.01641365960042   -1.26447741858032   -2.03759160982527
C         2.98738215358677   -0.71537301033685   -1.04486226987498
N         4.21721225204932   -1.10489015551152   -1.20398722016814
O         5.05269870208264   -0.47545008882509   -0.29125033870727
H         2.86284035742924   -1.54627268650883    1.68984526061248
H         1.28032451931430   -1.69264649763188    1.08021858815750
H         1.67682457534618   -0.41081452252333    2.22432036656681
H         3.30499460785270    0.61555906411879    0.70244182310454
H        -0.69972933262784    1.83476273366121   -0.08872233825773
H         3.16676823638972    2.99093352598507   -0.63675154209396
H         3.87850708723237    3.04363844984419   -2.27821228907163
H         3.86196455781448    1.47008918387794   -1.42927583629430
H         1.96650822851493    3.84395688356059   -3.43694443869612
H         0.30147005817857    3.15462819742060   -2.97038248556279
H         2.17594151183515    1.89249705954456   -4.98957514551586
H         0.50198124149161    1.55962351774015   -4.67637906217127
H         1.64915021314466   -0.48743661653466   -5.27060809981794
H         2.40888967712640   -2.23726556371412   -2.36633297119990
H         1.07420509156797   -1.34916526309663   -1.48771917275823
H         5.93572501524127   -0.86448339352499   -0.44165293598006
