32
 energy: -49.289431722264 gnorm: 0.134680012857 xtb: 6.4.1 (79825abcba525fcdf90b791dcacef51065a7a4e7)
C         2.21454625233678   -1.10435214268833    1.22318822546478
C         2.51525642828394    0.07534097415487    0.29768870244221
O         1.31158351804479    0.83512968656928    0.11258027955482
C         1.00667819736585    1.66278847662816   -0.91788756349787
N        -0.09035204176521    2.33456553208216   -0.93012838787570
C         1.91659621660107    1.96314031179309   -2.16277747610060
C         3.30399165991982    2.45658764785822   -1.66722364799674
C         1.34405701547391    2.86459310470692   -3.28285698171473
C         1.71459629577658    1.78318458044123   -4.31399923278852
N         2.01829146839564    0.89206186005810   -3.20501491273236
C         1.83621003229449   -0.50124775389787   -3.15997187471675
N         1.62772592216559   -1.27390493377607   -4.17921969993807
C         1.72864140026882   -1.14811766878078   -1.79200147260228
C         2.89481877075176   -0.69231616442512   -0.97831702273755
N         4.14701016948401   -0.95279777027435   -1.21003341137255
O         5.02597027635138   -0.36867641100200   -0.30806201939488
H         3.15724217683532   -1.66194822727088    1.25755633856915
H         1.50713948009387   -1.71038306533321    0.64995361542461
H         1.84650357309899   -0.77460581477777    2.20094168969755
H         3.24495563675802    0.70569233710501    0.81852079032538
H        -0.68523897886868    2.04782440710492   -0.14044259791500
H         3.05671775398031    3.35923740588296   -1.09347487275937
H         3.94914559970234    2.62596698907437   -2.53760625998097
H         3.77236779306171    1.80062813916725   -0.92857874935872
H         1.76244653966099    3.86643958737543   -3.40064643392451
H         0.26951226000395    3.07863960468444   -3.21334233818320
H         2.54951920618403    1.99037371658408   -4.99743055000412
H         0.86383360358785    1.42470538387355   -4.89443284599977
H         1.69766934006362   -0.86816795038467   -5.10959233302433
H         1.98691887105939   -2.16521927358011   -2.11944944838375
H         0.71874182087605   -1.04398427514640   -1.38389879757566
H         5.83766094975753   -0.83415143605334   -0.58769495029575
