32
 energy: -49.246523710764 gnorm: 0.125724960721 xtb: 6.4.1 (79825abcba525fcdf90b791dcacef51065a7a4e7)
C         0.95072995652414   -0.37040760359017    0.81200896216841
C         2.39986085948805   -0.03889364959499    0.45316373306906
O         2.56336226101373    1.31305461391133   -0.00057150945667
C         1.62209436388045    1.75487651692836   -0.87158153284793
N         0.48105938295826    2.31535380532635   -0.67456894032741
C         2.01874382449300    1.79021733135982   -2.39123056100705
C         3.12068589318608    2.87610428724864   -2.24804121576833
C         0.97876819534415    2.15234572958730   -3.47857139425203
C         1.92443558622141    1.31544559581822   -4.35908798236288
N         2.36561373320677    0.57118562073080   -3.18963697771901
C         1.73289533782079   -0.67104947686010   -3.00794052372028
N         0.95582173889636   -1.31057358384494   -3.82433282397117
C         2.19580481960991   -1.47156719788843   -1.80534297941617
C         2.99699227702451   -0.83491680472319   -0.71787716711045
N         4.27759455350347   -0.76807689022319   -0.93028394954129
O         4.94793975261419   -0.22187226981282    0.15581864215169
H         0.51262924539260    0.56929261481238    1.16669392506357
H         1.04131084249254   -1.04099940731009    1.67130952951218
H         0.35877455779840   -0.89474934875402    0.05382401347052
H         2.97124611165945   -0.15343254183876    1.38131757568317
H         0.05006484074938    2.33005593643554    0.26017280308794
H         3.09671037231329    3.42338538834860   -1.29671730252765
H         3.00149132194695    3.70029038232746   -2.96147571899208
H         4.14243601946328    2.50556776009861   -2.36629825244586
H         0.90487045982081    3.23170791080045   -3.62735626310111
H        -0.00507326068721    1.67149225534126   -3.40027359272248
H         2.77633118308342    1.92593675492421   -4.68874905263168
H         1.63344961983761    0.62676360575385   -5.15297208418819
H         0.61835029415362   -0.75622166073503   -4.60785996729673
H         2.87026621885065   -2.22705929906719   -2.23284570909767
H         1.26922750471728   -1.99764917793891   -1.55638329081389
H         5.88122868082464   -0.32506880990471   -0.11255716428694
