32
 energy: -49.291311486566 gnorm: 0.119531051676 xtb: 6.4.1 (79825abcba525fcdf90b791dcacef51065a7a4e7)
C         2.12029818254975   -0.52910710503686    1.43104423460941
C         2.50680902797173    0.34236136586796    0.23530015678797
O         1.27724010418959    1.01080581145759   -0.08362739748150
C         1.03969660683503    1.84195263461324   -1.12891127519624
N        -0.09223191803170    2.45307972250184   -1.11583045531952
C         1.98327805265935    1.90914328898881   -2.38312515055966
C         3.45325893814885    2.13738404828342   -1.93480342439531
C         1.48825203017451    2.82415758285555   -3.52885395145769
C         1.55855485811718    1.60636800237085   -4.46802600858557
N         1.93833562767940    0.76233086429190   -3.34573167811179
C         1.69010504974920   -0.59726079526238   -3.08807624435513
N         1.44453045975540   -1.45230634730003   -4.03037190240540
C         1.93434045640272   -1.22031808950490   -1.72664193624595
C         2.98461325094229   -0.66579766798183   -0.82152250507151
N         4.19130554452200   -1.14672383536910   -0.77536874187162
O         4.98733850400247   -0.51158813916370    0.16816461533397
H         2.93060693184489   -1.09519390891801    1.90403009653413
H         1.31671094864337   -1.22215520927139    1.16603929196237
H         1.72974239485042    0.17043877510543    2.17823338885453
H         3.24579511606854    1.11328864752758    0.48155313168452
H        -0.77405674367796    2.17528790839086   -0.39634369258740
H         4.01791433430417    2.57508902032649   -2.76828243988531
H         3.83288018680831    1.19090215583510   -1.53164266244216
H         3.46920834765446    3.00142218700174   -1.26514747628588
H         2.21062571973522    3.62644757312221   -3.69355841818311
H         0.47636349847524    3.19444045802282   -3.31845712843627
H         2.34525832157789    1.67466264400434   -5.23192094667670
H         0.65605586024708    1.26357120871493   -4.97516858247109
H         1.44057349830758   -1.06321564220857   -4.97042540521487
H         2.03724735216921   -2.30197349758446   -1.89354560680682
H         0.93344026350219   -1.21964764543247   -1.28450273323699
H         5.87940040488923   -0.89894424412869    0.07937195837068
