32
 energy: -49.277337822978 gnorm: 0.144125812892 xtb: 6.4.1 (79825abcba525fcdf90b791dcacef51065a7a4e7)
C         2.04827158393844   -0.91026439471680    1.31942616382208
C         2.38348649730929    0.07539897600454    0.19926969789773
O         1.15366495003276    0.66878300767982   -0.24323100121775
C         1.08406432232005    1.84649386638681   -0.91256145240223
N         0.15942635950852    2.71145008965981   -0.68495433406047
C         1.94063100021972    1.99215050142711   -2.22137415448017
C         3.37744560893677    2.25871804603636   -1.69370423160051
C         1.24009645270624    2.92681038566331   -3.23658776173143
C         1.25937053119235    1.78223679663550   -4.26594577268855
N         1.74517191035347    0.89406493943437   -3.22128101172449
C         1.89458079729162   -0.50318110151833   -3.26457885259557
N         1.77825788889733   -1.12575011125713   -4.39515732750748
C         2.17187103333393   -1.31936036909932   -2.01625348410492
C         3.02099736577960   -0.75704675708296   -0.92419354459404
N         4.29376608093464   -0.94382949205784   -1.11046876672057
O         5.06506751059570   -0.64448809302649    0.00434505443421
H         2.94247840813203   -1.34021451914765    1.78451455404036
H         1.46148126033619   -1.78339913834248    1.02007925594440
H         1.44697055585200   -0.40902509300601    2.08583736421589
H         3.26473664029704    0.69387895317023    0.40408804271834
H        -0.48971931416134    2.51337300675078    0.08905468018067
H         3.79195304604134    1.29522606242362   -1.36970513929340
H         3.24396968518489    2.96970193851816   -0.86958958460864
H         3.92563213058185    2.80261216918225   -2.46760739022770
H         1.86048380513504    3.78676326961159   -3.49777947068009
H         0.19058524099492    3.08616890875778   -2.95654185119853
H         1.97069931046091    1.70915196052193   -5.10007523044417
H         0.32448239139504    1.41362715870772   -4.68940625258630
H         1.41615702142676   -0.56670075660326   -5.16421818459345
H         2.64048376895076   -2.24185964196368   -2.38749772692213
H         1.23617198526268   -1.54712489529073   -1.49675436616009
H         5.98844245407927   -0.74665061200855   -0.29672778906000
