32
 energy: -49.286852707818 gnorm: 0.127698898441 xtb: 6.4.1 (79825abcba525fcdf90b791dcacef51065a7a4e7)
C         2.23193613575035   -0.89783890760751    1.27341200718678
C         2.59292640670359    0.23793956299590    0.31510876372330
O         1.38315545373542    0.97634255389100    0.08797942759974
C         0.97523059895713    1.69739345762220   -0.98604720192786
N        -0.21407011023638    2.18775607778466   -0.99027893579045
C         1.89556434169085    2.10656207032074   -2.19165068726457
C         3.37985096645391    2.43052928060660   -1.86627640056643
C         1.14327020017132    2.94423586870044   -3.25341926148613
C         1.29165394007758    1.77195821644280   -4.24020468460697
N         1.95387452215663    1.00030560577309   -3.19991970517891
C         1.93533800169970   -0.40528870952418   -3.22125561326597
N         1.87116825959304   -1.05194891281841   -4.34243520914945
C         1.94040956392254   -1.09605711599700   -1.87063798781607
C         2.96841374245509   -0.64254321656857   -0.88710376330727
N         4.08347867875711   -1.30251541228813   -0.99002763724164
O         5.08742285767732   -1.01171661446436   -0.07632464277764
H         3.07058705100992   -1.40758290355220    1.76085006726214
H         1.69351818453046   -1.70557673115896    0.76946612523119
H         1.65019222814170   -0.53640683412134    2.12847385961564
H         3.34691400588661    0.93384367233366    0.70019316474072
H        -0.81239087194205    1.84747053683860   -0.22481659221863
H         3.92051333696784    1.60608385788686   -1.38349015464245
H         3.47091104383020    3.31167380537654   -1.21992414504567
H         3.99967722783853    2.56297054120144   -2.75707945437472
H         1.65367964739243    3.86023234926597   -3.55846544116960
H         0.09088486938756    3.19630656512036   -3.06837846342842
H         1.90732485186489    2.07105364577805   -5.09961915039392
H         0.33244055430398    1.37442707810067   -4.57350086731789
H         2.02647738171554   -0.57065271009364   -5.22523804971936
H         2.19410113465242   -2.13768846731529   -2.11368078685719
H         0.98522263166407   -1.02655086241298   -1.34141637477782
H         5.86452177409772   -1.31287742972036   -0.58536566383575
