32
 energy: -49.285007162242 gnorm: 0.119600523548 xtb: 6.4.1 (79825abcba525fcdf90b791dcacef51065a7a4e7)
C         2.03247604512578   -1.11702671222642    1.25679006297503
C         2.46175152656451   -0.02174313832304    0.27968809171952
O         1.30370709321473    0.79574069290858    0.05379928128207
C         0.98383331700329    1.66770463304296   -0.93474002941975
N        -0.07938312789890    2.39168839441157   -0.91663206624289
C         1.95668247943536    1.95075467400585   -2.13530661664896
C         3.42047301320295    2.37513664299464   -1.83340067700391
C         1.37624610641860    2.93922537811074   -3.17502566143736
C         1.40731610421453    1.80584823710780   -4.21641368412409
N         1.84513688180137    0.88336045376513   -3.18031236511625
C         1.73466210596347   -0.51659698124578   -3.24671050758622
N         1.58070046346856   -1.19217777278209   -4.34179830033045
C         2.00253492368124   -1.24140843074531   -1.94124231123282
C         3.00882934051932   -0.63913624995366   -1.01687939691672
N         4.28229895047747   -0.83063489058387   -1.19331596040393
O         5.04775853442465   -0.49918272583457   -0.08357179625754
H         2.92583569263530   -1.28334044396378    1.86917756010361
H         1.68422671131244   -2.03322973608828    0.77141376302008
H         1.32331850809630   -0.81137144091167    2.03387456890236
H         3.31233086295973    0.47805231950234    0.75696068681905
H        -0.76402938691768    2.31067048839687   -0.15216481486390
H         3.98522161693110    1.69388132627105   -1.18374013261053
H         3.51032709397367    3.42354918384560   -1.52479698039908
H         3.98361596324059    2.26003728582838   -2.76338859480708
H         2.05355530179697    3.75190175927133   -3.44600516029791
H         0.38967203249772    3.33470421034612   -2.90013892294072
H         2.16004884017076    1.96574073685335   -5.00058827616507
H         0.44274346822132    1.57018557629693   -4.66726888637163
H         1.72535895020274   -0.59578377376384   -5.15327592863414
H         2.23615999828447   -2.31536908987455   -1.96252393286940
H         1.09973457573562   -1.07812697590528   -1.34493750133335
H         5.94222729407365   -0.56346009931410   -0.47022070832901
