32
 energy: -49.288187308560 gnorm: 0.116982872928 xtb: 6.4.1 (79825abcba525fcdf90b791dcacef51065a7a4e7)
C         1.27925280233151   -1.09023746798750    0.84862967534220
C         2.04344789073857   -0.00119265283379    0.09454806791575
O         1.04407078999127    0.70763906482054   -0.65323232578401
C         1.40820748416694    1.90646737637240   -1.17291059987646
N         1.05180335717834    3.06110199644590   -0.73165714363271
C         2.18466535485874    1.86221979224057   -2.53785321146284
C         3.64405288817987    2.35883940429751   -2.34423764126415
C         1.32177124681282    2.58641728232507   -3.59896026623525
C         0.89140435950220    1.23882760571351   -4.20623657163480
N         1.82670470364346    0.61364122637133   -3.28399368673239
C         1.83124308001680   -0.73937976304723   -2.90214579555314
N         1.09075233235526   -1.68077348465428   -3.39690046686756
C         2.88732641614721   -1.28825340174127   -1.96151812605540
C         3.23201412318285   -0.48408392541550   -0.75143182083272
N         4.49203111286978   -0.32577175258620   -0.47426602932807
O         4.80740611733275    0.20179376888401    0.77053686404837
H         0.45693183433388   -0.52705402640268    1.30402269453475
H         1.98768808151779   -1.64334576631723    1.47191644716982
H         0.73830429133758   -1.77929692296674    0.19078344386289
H         2.47972929670076    0.72964149703426    0.78491741000037
H         0.49325817900598    3.18530822586934    0.12409672379560
H         4.10398230033917    1.95958492541484   -1.43090888351584
H         3.53844414856384    3.44944864247000   -2.30068137166415
H         4.26142943596774    2.08329785690660   -3.20341074674968
H         1.91281370311536    3.01953112399455   -4.40871439886133
H         0.55239783388884    3.26466900702162   -3.20738168794096
H         1.22930808178015    1.20189018948164   -5.25101342571926
H        -0.16276271799233    0.98769736439167   -4.08428148154950
H         0.42532663423735   -1.34810467054924   -4.09090905620239
H         3.81224119381712   -1.48198285528142   -2.52314668403446
H         2.55115381537541   -2.23724279090997   -1.53292059577101
H         5.69805176212712   -0.10228093667205    1.03129006308063
