32
 energy: -49.286831209819 gnorm: 0.128893657811 xtb: 6.4.1 (79825abcba525fcdf90b791dcacef51065a7a4e7)
C         0.80773468789598   -0.50656817968121    0.54566969650289
C         1.98695287104528    0.40451049275502    0.20211195446678
O         1.61109550058373    1.21924623476794   -0.91829394638728
C         2.29804430744527    2.23786005442952   -1.49307872315074
N         3.21921418509634    2.99698429321270   -1.01340590729149
C         1.86834796681459    2.10321764472177   -2.99811873320500
C         2.74022440901582    3.02370512836104   -3.89615227955710
C         0.35537537062410    1.98609421633226   -3.30175075762251
C         0.71353791589046    0.65518694148945   -3.98761045078333
N         2.04787773708124    0.67382458964642   -3.40850201532607
C         2.42548009348803   -0.42375934350320   -2.61526800552651
N         1.96318317458161   -1.62139966612765   -2.79210151019297
C         3.62907172828243   -0.29479121511267   -1.70088893083237
C         3.15159339984124   -0.46537525736094   -0.29635251689307
N         3.79095160724758   -1.37643482503461    0.37500279880811
O         3.43902869176240   -1.63784837815080    1.69224773554184
H        -0.07537691967402    0.07207358654124    0.83902571274444
H         1.13921396044501   -1.10682402357620    1.39779066474326
H         0.54822292882862   -1.05740192184225   -0.36505843021773
H         2.30424510289742    1.02348816949270    1.04902522883351
H         3.30236731005204    2.97522532863782    0.01242384646452
H         3.75881165273701    2.96291432736967   -3.49131511716039
H         2.34101882080377    4.04144530814759   -3.98170155337946
H         2.67634550257650    2.59046671563695   -4.89789043692944
H        -0.03751600944448    2.73445421835779   -3.99328108803183
H        -0.21297983082972    1.97022491276842   -2.36259413882026
H         0.76029941715247    0.73125636251728   -5.08265783870469
H         0.02516451350807   -0.16305746134104   -3.77354077179527
H         1.41811072875932   -1.71319886340016   -3.64625416484458
H         4.06255497226338    0.67236172883295   -1.99266373528791
H         4.44990899030801   -0.96220598670869   -1.98030334748780
H         4.10220891529541   -2.33029976738480    1.87773732579910
