32
 energy: -49.285592780121 gnorm: 0.123031177434 xtb: 6.4.1 (79825abcba525fcdf90b791dcacef51065a7a4e7)
C         2.41669771145420   -0.75963676046527    1.49795596101529
C         2.49498231221839    0.10841834216132    0.24137183196042
O         1.20423860565409    0.68717094130447   -0.00234647727892
C         0.93190727721082    1.50429669237521   -1.05019736864921
N        -0.28092485630551    1.88522865746692   -1.24727265557954
C         1.95923707220421    2.01250320994569   -2.12454954612946
C         3.38105709919798    2.42663441311490   -1.65459940005919
C         1.34611180348570    3.02339295884255   -3.12313641108613
C         1.49591276024437    1.95253219279296   -4.21895345569750
N         1.91452640311227    0.98654162046989   -3.21506027370303
C         1.75947195095422   -0.40820059600295   -3.29959713683649
N         1.80055726332933   -1.17934053720519   -4.34026329671963
C         1.81407593904295   -1.06617642503166   -1.93378568397656
C         2.91814671459351   -0.69085722609990   -1.00106372237614
N         4.09998539761741   -1.21964978275921   -1.11579036240513
O         5.00836415162148   -0.61649525906050   -0.25650363291454
H         3.35366410169466   -1.32625005585567    1.54054141459773
H         1.59728486573871   -1.48092934072694    1.56574484859741
H         2.57642236942405   -0.21734136768934    2.43635546448926
H         3.23422666441836    0.86684452926796    0.52311169087914
H        -0.90731179012056    1.44201390460125   -0.56104041874499
H         3.23168068145631    3.19579286716388   -0.88571021453015
H         4.06121490264497    2.79807751122345   -2.43041783244655
H         3.95775142006521    1.60890394315254   -1.21414973830184
H         1.93048374382745    3.94486488041888   -3.16807491236454
H         0.28424756340351    3.08649901678841   -2.85155475836619
H         2.26286962550017    2.11344304382261   -4.98900984224807
H         0.62162828090834    1.72139265806881   -4.82838666456637
H         1.64699526200334   -0.68517960224588   -5.21623789863618
H         1.93229276508864   -2.14493529540037   -2.10908307625217
H         0.82642361934812   -0.87807783531283   -1.50198649741526
H         5.88845072119035   -1.00704121037837   -0.41967474915219
