32
 energy: -49.281460560381 gnorm: 0.129530819670 xtb: 6.4.1 (79825abcba525fcdf90b791dcacef51065a7a4e7)
C         2.25065070135780   -0.36176254009896    1.62700067283647
C         2.46402800820159    0.45316668460379    0.35067301712509
O         1.36946678680849    1.33500109340204    0.05968112101506
C         1.00317795483890    1.67217223422822   -1.20206307936568
N        -0.25080302768626    1.89730577467221   -1.38026570709391
C         2.04972344137099    1.92788247695055   -2.34542118069228
C         3.41682442089863    2.47426707540633   -1.84900527490966
C         1.52565346956065    2.77686968429817   -3.52845447497678
C         1.61993585153823    1.54032491268921   -4.44063097143817
N         2.08463605689562    0.77124795971135   -3.29662439713304
C         1.84428935903335   -0.59046342713058   -3.04271541948863
N         1.63849356562001   -1.49987573934245   -3.94268664680087
C         1.70979736938600   -1.12278863916530   -1.62853846037057
C         2.78237762634786   -0.57632553004406   -0.74493408654652
N         3.94106627317746   -1.07923637206526   -1.05160612731939
O         4.98293340688177   -0.71178465331583   -0.21088433662162
H         2.74152329398135   -1.33224118305714    1.49289078372505
H         1.17510739471363   -0.56042090582435    1.63309849352736
H         2.42595217268590    0.04361975322178    2.62955963465910
H         3.41926851199538    0.95791228482080    0.53456779872672
H        -0.79157237981116    1.51010617927851   -0.59454338412725
H         4.16660289199928    1.78946834140485   -1.43188233566913
H         3.28214016786554    3.15763505474068   -1.00204175089558
H         3.89194853547035    2.89680119638434   -2.73837435571837
H         2.12637006105926    3.57322763159186   -3.97294758286069
H         0.49724461949870    3.11064744207548   -3.33802792204184
H         2.42441283059254    1.43974285010596   -5.18211732704567
H         0.73035184169059    1.09289038206109   -4.88520976470636
H         1.64349955809501   -1.22160820245502   -4.92128254672163
H         1.81427677719924   -2.21685594036665   -1.65147052242723
H         0.69724788324920   -0.94424304801574   -1.25416735638787
H         5.67064151706582   -1.39790956574799   -0.31085174335372
