32
 energy: -49.292934606293 gnorm: 0.120165783815 xtb: 6.4.1 (79825abcba525fcdf90b791dcacef51065a7a4e7)
C         2.25560939108238   -0.78252562750831    1.51993468972491
C         2.42300848445221    0.04236981697981    0.24315089876847
O         1.23252227814931    0.83309812912965    0.10949535929390
C         0.89362743967089    1.58405461099888   -0.96803188086079
N        -0.30336695739337    1.98102655135126   -1.22205407113102
C         1.98272190390145    1.91336120797701   -2.05124161646862
C         3.37467225471330    2.37641518143032   -1.53939671522498
C         1.53759702306602    2.90239713448194   -3.15517465870012
C         1.88314336738347    1.81318336103303   -4.18677980715407
N         2.09295066741418    0.85869618913054   -3.10923082148611
C         1.73217585368795   -0.49921575491383   -3.15833148328300
N         1.47921208035626   -1.23327271462572   -4.19587693833921
C         1.70967396186205   -1.27977995085409   -1.85772858507698
C         2.82026285429585   -0.76689787458833   -1.00136924542344
N         4.05751433628682   -0.94057170105611   -1.35993946322986
O         5.03344183081045   -0.27685778721670   -0.62893304590566
H         3.20724108434361   -1.31582887134970    1.62364068822587
H         1.45505056759575   -1.50487829391630    1.33661003718874
H         1.98376439206573   -0.01303719401840    2.25080932794325
H         3.24503663461170    0.72155220044971    0.49623358326747
H        -0.94442585334296    1.66923230987917   -0.47939504600939
H         3.42372676843828    2.87998582134197   -0.56516939462936
H         3.63823227303720    3.18340127896026   -2.23350651666217
H         4.08234774043686    1.54626212168389   -1.61217494072919
H         2.09189354844004    3.83606662469524   -3.27195295775150
H         0.44419101821448    3.00022099106649   -3.16890156086302
H         2.81496704792549    1.99919088965362   -4.73833016745699
H         1.05189861954446    1.49376455512570   -4.81623311756127
H         1.65413694249063   -0.68897712278431   -5.03745368687367
H         1.92719725537274   -2.32255048125334   -2.12927659677457
H         0.80233618364984   -1.14530737926415   -1.26111816155378
H         5.85013031028906   -0.51859403544805   -1.10672676377257
