32
 energy: -49.295452847337 gnorm: 0.113343769762 xtb: 6.4.1 (79825abcba525fcdf90b791dcacef51065a7a4e7)
C         1.99053028639607   -0.96833560598291    1.44554803329388
C         2.28585953287493   -0.05650947746146    0.25390817297066
O         1.07483518662808    0.65571903200480   -0.04023987836303
C         0.97568860277199    1.70321702562031   -0.89625869993490
N         0.02268943327883    2.55457967049761   -0.74832688540429
C         1.97285081356710    1.93413517831927   -2.08800416940397
C         3.39802812480705    2.30237740554149   -1.59081479060761
C         1.34645030855720    2.86643948754899   -3.15262967942958
C         1.51408779967136    1.76142930085646   -4.21133089369791
N         2.02382088338032    0.89173362254643   -3.16253238976530
C         2.00207595805381   -0.51094944307254   -3.25473646959532
N         2.12416105157381   -1.10571728995136   -4.39958463274747
C         1.82203344434416   -1.28290752039573   -1.96128367307243
C         2.83514737446555   -0.76516130834197   -0.99415075934179
N         4.07967405291225   -0.96584374764234   -1.31102036958666
O         5.05494484597470   -0.36205125421530   -0.52897016360715
H         2.88908195482405   -1.57974823775240    1.58536811937026
H         1.11603991530165   -1.54874694178294    1.13783874379875
H         1.73693005303182   -0.28606326463205    2.26431617195058
H         3.00498052295845    0.71846846217158    0.54260184263058
H        -0.51275299963640    2.28095255795732    0.08722334859825
H         4.11429827116906    2.34455128378022   -2.42164994864281
H         3.74038899078911    1.48975642304702   -0.93895971623031
H         3.25447410059088    3.19136597170973   -0.97085757838808
H         1.87167144069724    3.78842222782933   -3.41091463566595
H         0.29640105577972    3.08431305893526   -2.91763542161512
H         2.20824799620505    1.99890551773887   -5.02916256345106
H         0.57153107486016    1.41429220716101   -4.63593698457792
H         2.47517061443391   -0.40691715500769   -5.05041370816343
H         1.98791526706212   -2.32357403166243   -2.27420782886756
H         0.78763214164033   -1.14269755759400   -1.63319247954692
H         5.90523978439710   -0.67503354522734   -0.89331056231928
