32
 energy: -49.288603950563 gnorm: 0.116130602179 xtb: 6.4.1 (79825abcba525fcdf90b791dcacef51065a7a4e7)
C         2.10419098004152   -0.99268149434974    1.36007035520932
C         2.33978099885105    0.00129678408683    0.22202099829942
O         1.05452236184315    0.54536331527338   -0.11335095546507
C         0.93872008837559    1.59286974483527   -0.96726573577127
N        -0.11636149643655    2.32675733174840   -0.91139556637538
C         1.90392168389661    1.93590112460740   -2.15832758405827
C         3.34613142835244    2.29181926846216   -1.70304379066489
C         1.30012172164596    3.00169343131341   -3.10411232378711
C         1.55284167848252    1.97505510163630   -4.22310493601441
N         1.91794664462161    0.93556070448731   -3.27319628572949
C         1.75276991904534   -0.46057891858396   -3.27095662792760
N         1.60380739781255   -1.21595161917634   -4.31333521716810
C         2.04774856667532   -1.16845559995944   -1.96204375772175
C         3.04402200673432   -0.61966023542179   -0.99453669733917
N         4.30126414659118   -0.90666930154151   -1.15730779312755
O         5.25906423684134   -0.49212148049012   -0.24183518055297
H         2.91499133039855   -1.72969961802559    1.34675718496780
H         1.21851832328342   -1.59954128494057    1.15126213289252
H         1.91900451914292   -0.53676786905069    2.33886483251053
H         3.01400357780209    0.74428874579383    0.66299344766637
H        -0.72207950940522    2.15239587125109   -0.09750468979482
H         3.36657031592752    2.59292321541130   -0.64756887922582
H         3.82811685796409    3.07271633273339   -2.30335094450885
H         4.04921440703018    1.45520061326314   -1.73464950292089
H         1.88426910904471    3.92335902117716   -3.14798607640598
H         0.24606338039371    3.19061543218342   -2.86211207123212
H         2.44438557731287    2.18353307253270   -4.83038443407384
H         0.70878548352275    1.81302215848016   -4.89431439165674
H         1.47871172981129   -0.67866415823701   -5.16819256241072
H         2.35338716670266   -2.19533605012643   -2.20806545752640
H         1.15525848292517   -1.35061590039372   -1.35577006178763
H         6.19367846113214   -0.62653952226971   -0.49109681442839
