32
 energy: -49.285067300235 gnorm: 0.125667276097 xtb: 6.4.1 (79825abcba525fcdf90b791dcacef51065a7a4e7)
C         2.23493840394186   -0.30064843793670    1.65938271682804
C         2.43975995018387    0.31762680544218    0.27575139137168
O         1.28555420080337    1.14212634688680    0.05579219097487
C         0.95390327820093    1.75655223485962   -1.10710882676753
N        -0.14972505854570    2.40848262455963   -1.21619977678088
C         1.98500701560409    1.93715147895328   -2.27848489422215
C         3.40756989938857    2.46812574769182   -1.94937833684252
C         1.25603003892855    2.64825233680834   -3.44378507439037
C         1.68952690125174    1.46645297275024   -4.33002930505608
N         2.21337069059171    0.75742478424527   -3.17285886821338
C         1.97870348958801   -0.62628433609136   -3.09055098481874
N         1.89166813342275   -1.41448552456064   -4.11548737516807
C         1.67750519172791   -1.23164538176739   -1.73254793099060
C         2.72224693034584   -0.77324195854814   -0.76912278462228
N         3.90253133857880   -1.26486911003122   -1.00312680347836
O         4.92799722808300   -0.73784193167851   -0.22983314768540
H         3.11584681622267   -0.84523419752518    2.01742862920938
H         1.43673295946369   -1.04099523812174    1.55426176888928
H         1.99135206321505    0.43835489050893    2.43056989081531
H         3.30766770448687    0.98649681688019    0.25528517836022
H        -0.69154844484363    2.38416031413790   -0.34124239190384
H         3.96734474507677    2.52189496835199   -2.89217715451336
H         3.97643637107919    1.73990391206793   -1.35898631130660
H         3.46427113029928    3.48902467329668   -1.56233090802657
H         1.69207386178265    3.58472617681460   -3.79804917994148
H         0.15851518659489    2.63357886190380   -3.42053733110360
H         2.51214596331865    1.62907376178299   -5.03992671855595
H         0.96317504825870    0.85006752299959   -4.86077372712808
H         2.28864697094241   -1.01236883940822   -4.96154753559341
H         1.30417238603751   -2.25638854393763   -1.87020379378297
H         0.78026337576626   -0.69643134637282   -1.40729144223861
H         5.61162988501531   -1.42752083996067   -0.33323874334879
