32
 energy: -49.283750525881 gnorm: 0.121183979884 xtb: 6.4.1 (79825abcba525fcdf90b791dcacef51065a7a4e7)
C         0.82912415217518   -0.98447438177330    0.23190143172657
C         1.88148418382260    0.11655252965573    0.09431535380363
O         1.25425766487676    0.98253390182737   -0.86330444969649
C         2.08261744155115    1.95076091474218   -1.32828500664668
N         2.84382636851516    2.71434591991998   -0.62656672564785
C         2.06856792587492    1.98642931886955   -2.89877646349091
C         3.39917853665431    2.65681096686368   -3.33922380816139
C         0.72540517105537    2.41803296625809   -3.53488064236287
C         0.36260523769910    0.92452964397925   -3.62332349713368
N         1.73521598339154    0.57881658850015   -3.28776588591565
C         2.18334958997724   -0.69026628348946   -2.88144194849528
N         1.61465769644027   -1.75586702746401   -3.35092619492078
C         3.34600670269934   -0.91322731058413   -1.93282638134301
C         3.18658964740606   -0.38039186946819   -0.54701267857920
N         4.22915308205379   -0.47132194686626    0.22390862305283
O         4.00344235903944   -0.10304341562453    1.54328219275199
H        -0.05240373030326   -0.47368725836374    0.63535560944258
H         1.02240158062356   -1.78836260524233    0.94793445757061
H         0.58716050870359   -1.39970800971200   -0.75259057956855
H         1.99422662208293    0.62866164275913    1.05665793454623
H         2.79001652444776    2.59392473806762    0.39437295504395
H         3.97185840864775    2.73741015408236   -2.40613744239519
H         3.15249958875255    3.69681711368638   -3.58420457582070
H         3.99949859975088    2.13846672068312   -4.09168007598314
H         0.83616446253070    2.89168029910315   -4.51263885442263
H         0.10122851549976    2.98828538849713   -2.83451622986575
H         0.16422602346141    0.64547962743667   -4.66729607887948
H        -0.45753746334069    0.63325922685674   -2.96625792751362
H         0.88767567234235   -1.48698719769718   -4.00994713373378
H         4.38768621710209   -0.73574740945930   -2.23586060688816
H         3.36450092491398   -1.97635525242309   -1.67455198123525
H         4.81250019457850   -0.31018640181672    2.04946449720427
