32
 energy: -49.289714868553 gnorm: 0.118281380128 xtb: 6.4.1 (79825abcba525fcdf90b791dcacef51065a7a4e7)
C         2.24169944310764   -0.19464721864708    1.70312709083965
C         2.39203889708021    0.40592814837768    0.30478554061217
O         1.20879323224219    1.18065445830756    0.05962981298830
C         0.94243625062935    1.80184256549495   -1.11639298276264
N        -0.27725988388162    2.08409554972055   -1.41233925620438
C         1.93893870158504    1.91608350677627   -2.32546073268510
C         3.40937976146153    2.29824938674136   -2.00037254181627
C         1.34091140349886    2.67577662462213   -3.53385889268544
C         1.67943406778059    1.42357938119049   -4.36295633676775
N         2.12942819259552    0.70238388246771   -3.18246531715309
C         1.94605490376699   -0.68660450955024   -3.06593323548709
N         2.28191741813331   -1.57362569032624   -3.94895117549222
C         1.60905731231829   -1.13047895654927   -1.65498928434597
C         2.70273602629308   -0.66803662934970   -0.74954960411651
N         3.91580681911202   -1.08105241821570   -0.96727340693348
O         4.94333841340205   -0.59575944821695   -0.16978323417514
H         1.78943438665064    0.57900869098967    2.33374822599145
H         3.26322300278971   -0.43232385447685    2.01344172010345
H         1.56391961614539   -1.05231374149894    1.77532494109632
H         3.30916180748445    0.99965543542982    0.39106020163356
H        -1.06372309442348    1.90799240716589   -0.77188794458452
H         3.88447293880640    2.59596270899325   -2.94417436203489
H         3.93391535740654    1.39215045239948   -1.67429587534552
H         3.50535968667534    3.06038269146550   -1.22242906741585
H         1.78860001231542    3.63085277399150   -3.81674577731821
H         0.28402742746736    2.93114203432759   -3.38193985110638
H         2.42857129659290    1.71638905374472   -5.11139329767080
H         0.79639388630955    1.01385639480739   -4.85445892009733
H         2.57560787581538   -1.28383321655928   -4.87893722724898
H         1.53584758253365   -2.22718833549100   -1.63784379220636
H         0.62157948689764   -0.74128670426495   -1.38908392793773
H         5.66341234150571   -1.13082872134210   -0.55565592717206
