32
 energy: -49.290251232415 gnorm: 0.129936430812 xtb: 6.4.1 (79825abcba525fcdf90b791dcacef51065a7a4e7)
C         2.38972214035204   -0.84538939012681    1.36187520366294
C         2.51762863641151    0.20599709751268    0.25875318368681
O         1.22868045901766    0.79452831744017    0.02937124848040
C         0.94732699643177    1.58542399429353   -1.03607445478457
N        -0.24342322832113    2.04216807166277   -1.20462216623906
C         1.92951023680889    1.97372923024670   -2.19902244607194
C         3.25824035935088    2.55312982270624   -1.63982553783008
C         1.25687366666797    2.90207076694712   -3.23860813845330
C         1.65705358146152    1.86626650225279   -4.30489311939798
N         2.10694248742368    0.94478188370993   -3.27307784331074
C         1.75674150332404   -0.41562751897875   -3.21704447230962
N         1.57123181102888   -1.08160839736775   -4.31312224636863
C         1.86683455584836   -1.08663930165614   -1.86095546538142
C         2.96291835435795   -0.60273698792035   -0.96975073363069
N         4.10908437267865   -1.21041334509094   -1.05074043377344
O         5.10192691011411   -0.93826638739908   -0.11933249852287
H         3.23373591640989   -1.54418768344046    1.35229126519431
H         1.44380576551494   -1.37299783703735    1.20966721468651
H         2.47386199808015   -0.37343377368300    2.34694792639122
H         3.34690754287170    0.85312586010962    0.56630917132820
H        -0.78919930118059    1.87470720312746   -0.34800094195929
H         3.89942471278310    1.71568489278016   -1.33539618688972
H         3.10278706455942    3.12667142502019   -0.71821653313424
H         3.69420601497540    3.27778173861082   -2.33269559264817
H         1.64889058516307    3.91663625945540   -3.33658834537535
H         0.17001369173227    2.96281103962477   -3.09598752944053
H         2.45042251377508    2.26114262842501   -4.95430866935428
H         0.92143952095237    1.34349481173260   -4.91709356767991
H         1.65274718251273   -0.59104654449563   -5.20071006107594
H         1.81901131050210   -2.17506934910037   -2.00744111156160
H         0.99922303147106   -0.81362273324583   -1.25267845883705
H         5.84929485133816   -1.44393001344277   -0.49276091277451
