32
 energy: -49.289113544267 gnorm: 0.127131893454 xtb: 6.4.1 (79825abcba525fcdf90b791dcacef51065a7a4e7)
C         2.16629370648566   -0.84419534465958    1.35797439644367
C         2.46238904750373    0.04018528829032    0.14601306371201
O         1.19546403680111    0.57317001250541   -0.26775114342900
C         1.06440511679332    1.64577355516002   -1.08762647415722
N        -0.10853299685478    2.17333210740917   -1.11604802493138
C         2.10571098339729    2.06502275803188   -2.18663748330252
C         3.44667170756475    2.50731760892633   -1.53846343341429
C         1.47108188270648    3.03637305603720   -3.21070823689221
C         1.43150827727532    1.85721383386614   -4.19965492994523
N         2.02586691564002    0.97315739297968   -3.20901941932056
C         1.85399342652835   -0.42217537888702   -3.20943190818727
N         1.31459884259254   -1.04739116094040   -4.20817591438692
C         2.07148786793090   -1.35104157491274   -2.02991571181428
C         3.01835545040392   -0.79526362022227   -1.01780915080491
N         4.27106059999041   -1.13811859999915   -1.06983533726255
O         4.91639415174152   -0.55552373378962    0.01249957232453
H         3.03362293508716   -1.12639579312047    1.96532362055011
H         1.70064669935476   -1.75923828927914    0.98092663850212
H         1.42332877325942   -0.36846730722400    2.00749409151575
H         3.17098630525641    0.85441020185338    0.33574330341378
H        -0.85247030293268    1.76503216765247   -0.53332765220552
H         4.12091998515181    2.82730274942470   -2.34351460912705
H         3.96569502547220    1.63591312485055   -1.12163267353818
H         3.11890101259606    3.22350459992431   -0.78024318722980
H         2.14531500901949    3.84275362963690   -3.50698614008321
H         0.50514812269753    3.48517899793997   -2.94455071856403
H         2.00617450769536    1.84005527298057   -5.13590611640675
H         0.38548858703975    1.58558016281381   -4.34548234282437
H         1.07131257944713   -0.38013799416445   -4.93666258626008
H         2.50591594553820   -2.25968969578770   -2.47043350947199
H         1.15347674413324   -1.63750241196720   -1.50791525084135
H         5.83147444367968   -0.89556339264670    0.03904035947035
