32
 energy: -49.289228145777 gnorm: 0.128578963893 xtb: 6.4.1 (79825abcba525fcdf90b791dcacef51065a7a4e7)
C         1.75066556772131   -1.26301668505149    1.03413768440846
C         2.28518493645945   -0.07058685583752    0.23974989101712
O         1.10233328675644    0.65832941897489   -0.12068807865611
C         1.09922926168470    1.67493143059513   -1.01866416435833
N         0.06873019056332    2.44391032128021   -1.05931822549371
C         2.12792103029811    1.98539813052472   -2.16466445042287
C         3.58010755749095    2.34265125000069   -1.74341096753635
C         1.49777266775435    2.98459229728860   -3.16442465414361
C         1.41718748331252    1.84499798001538   -4.19633013567835
N         2.00116337389225    0.93402427104113   -3.22407720696221
C         1.77611162130884   -0.44976043476563   -3.11926396021930
N         1.04714263095600   -1.12760228506205   -3.94900218399280
C         2.42263087356330   -1.37820767181378   -2.10864371175107
C         3.04863321029657   -0.75798965187615   -0.90313232479574
N         4.34604515420025   -0.79902796417316   -0.97069371912116
O         5.08627236088691   -0.15301650456756    0.01014974134794
H         2.45116549253857   -1.79886196248865    1.68447594679073
H         1.32524147921741   -2.04003936775907    0.39261930596752
H         0.93685196342422   -0.95320607674506    1.69890433150162
H         2.92485352452607    0.52814702686553    0.89808997838792
H        -0.59506089041826    2.33157874955590   -0.28055150292374
H         4.25782518475370    2.17354841007970   -2.59029447296962
H         3.89621229884502    1.96674165105280   -0.76297809353276
H         3.62866090152497    3.43463624013585   -1.72180700039490
H         2.19137248997343    3.80515522879052   -3.35991454835527
H         0.55287685534441    3.49026932640514   -2.92618680675970
H         2.04961086999100    1.91658330743752   -5.09188481196665
H         0.37214365789274    1.56891124916345   -4.34078496728051
H         0.54020348070911   -0.61977149242545   -4.67027079177613
H         3.17523577731082   -1.96085005947405   -2.65867897940678
H         1.65391371153173   -2.09283292117399   -1.79933254803337
H         6.01720189092189   -0.30400640020979   -0.24337655787390
