32
 energy: -49.288297941076 gnorm: 0.121721712995 xtb: 6.4.1 (79825abcba525fcdf90b791dcacef51065a7a4e7)
C         2.03380659086626   -0.97349249024263    1.29663860896553
C         2.32269024145582    0.07063679826788    0.21729061593660
O         1.06289537909600    0.68248796098632   -0.09723690876462
C         0.98158319288629    1.78634971518080   -0.88128275935240
N         0.02679053832843    2.61115486070728   -0.63033043837319
C         1.86124708078321    1.98086881924681   -2.16824302396706
C         3.31123670014905    2.43259233278805   -1.84051451575923
C         1.30374712116781    2.91828921727692   -3.26616524493198
C         1.37600565400476    1.76428885685343   -4.28256082594246
N         1.80389494335144    0.89444973101062   -3.19791003489373
C         1.91033544665177   -0.50632855263950   -3.25254360370739
N         1.77944446101812   -1.17466777894823   -4.35505033986837
C         2.11839836270755   -1.30357307884265   -1.97878315040840
C         2.99243025329988   -0.71714485594679   -0.91954888014438
N         4.23281814909455   -1.09556413810540   -1.00765769042518
O         5.20772128405358   -0.50867902170562   -0.21238996372829
H         2.91299500592564   -1.60464600170653    1.46822864633994
H         1.20185760489060   -1.65846816969810    1.10964946966550
H         1.75177871429372   -0.41324321004872    2.19484288038122
H         3.12475083991431    0.76287036714656    0.49761423346411
H        -0.33585692044208    2.36790439119959    0.30188768123239
H         3.96648871480796    1.60660300977320   -1.53474489913440
H         3.23156653685351    3.17296100690733   -1.03553889123422
H         3.73211848107106    2.90277842398897   -2.73328488977421
H         2.15856512447555    3.57815293417913   -3.42891228637749
H         0.33495186796769    3.41408127297500   -3.12152561212275
H         2.19803862582643    1.88154358733314   -5.00201554832038
H         0.47118680312919    1.38627561001845   -4.75965254338053
H         1.63444572829120   -0.60445687045252   -5.18507606788920
H         2.60130039749442   -2.24385886586620   -2.28059991344903
H         1.18412703078485   -1.48403469015200   -1.43854301378194
H         5.93581376840304   -1.15624946671652   -0.27748356260410
