32
 energy: -49.288479829445 gnorm: 0.124336827515 xtb: 6.4.1 (79825abcba525fcdf90b791dcacef51065a7a4e7)
C         2.08287079321694   -0.95084996814584    1.35846948388904
C         2.48269954856169    0.13823568371399    0.36213559883177
O         1.37827611098891    1.02293523816402    0.12145315661745
C         0.95599032814036    1.57822120620518   -1.04181057936126
N        -0.26868914836890    1.95976568460938   -1.13924557297998
C         1.97984305112532    1.87605580504559   -2.19547131602976
C         3.26693148938151    2.50644787965525   -1.59552199835838
C         1.32703054792230    2.77885796384356   -3.26961306651431
C         1.88772003212672    1.80503699536976   -4.32189540987227
N         2.26849382587052    0.87410506250244   -3.27091788283303
C         1.77973372189753   -0.43806756757250   -3.14517688592771
N         1.32459463760847   -1.20679552244588   -4.08391893485342
C         1.82700002270935   -1.11100079257425   -1.78639747204893
C         2.92218880059556   -0.64697226340898   -0.88359844204664
N         4.14157866361854   -0.91845529837385   -1.24264126533873
O         5.24276130051418   -0.51672573402959   -0.49877893390504
H         2.86891293897587   -1.69875835952415    1.51190006341083
H         1.29623552383561   -1.66322193119921    1.09384358661166
H         1.85605173083054   -0.41657119944454    2.28760305874122
H         3.35485520941074    0.66876916230356    0.76081912640203
H        -0.84742675247691    1.87839300783646   -0.29180480575382
H         3.07455344539362    2.66754724588291   -0.52680954573220
H         3.51298668165097    3.42947991238734   -2.13398979634378
H         4.12821368863549    1.83897771098374   -1.68458331432128
H         1.80623892924567    3.75500903555170   -3.16906978620143
H         0.23002817780146    2.74617124723906   -3.24111730420729
H         2.78862720892048    2.16331793421038   -4.83871550216527
H         1.09614682355490    1.38436900995960   -4.94290908209503
H         1.27474768356082   -0.70766549574348   -4.96906995177818
H         1.90978314253433   -2.16560814923639   -2.08535460882780
H         0.84479887515650   -0.93815720418593   -1.33618116677693
H         5.92538159459373   -0.76953264736368   -1.14979469605757
