32
 energy: -49.292695313983 gnorm: 0.119170802053 xtb: 6.4.1 (79825abcba525fcdf90b791dcacef51065a7a4e7)
C         2.23326707112998   -0.87749992212950    1.44444428214327
C         2.44308118587175    0.10896827510887    0.29487464563464
O         1.13929065514068    0.67006809362526    0.08116984181941
C         0.94523354647124    1.54320898798767   -0.93854439969107
N        -0.21688263309173    2.07388993206801   -1.08945271806382
C         1.94248375494217    1.92196400472273   -2.09177880443054
C         3.35873502957088    2.32326644213585   -1.59466849138440
C         1.39435177442746    2.94446444296027   -3.11600562346083
C         1.44712140555316    1.84508650280099   -4.19237991343005
N         2.08533872372370    0.95958851804029   -3.23074137723614
C         1.91559163687539   -0.43201855059650   -3.33614498069029
N         1.73653661267860   -1.11585963473285   -4.42225342015072
C         1.91945855538192   -1.11795523606802   -1.98306308225390
C         2.90165877971897   -0.64957559533290   -0.96046332783819
N         4.12454292552736   -1.05481186375415   -1.13327643761657
O         5.13817986676008   -0.58896448516865   -0.30693063408887
H         3.05336681527498   -1.60424556980152    1.43756409679076
H         1.25435027100913   -1.32875345615086    1.25900458264339
H         2.15627582395571   -0.38560074671691    2.42030156599594
H         3.20104578737614    0.86032217149642    0.54392649394111
H        -0.91614488849724    1.68688742899024   -0.44062612567847
H         3.34133255185949    2.76384827047688   -0.58933599696926
H         3.85083534417398    3.15189773988767   -2.11781885554373
H         4.05853969907986    1.48363345425129   -1.61801877781484
H         2.03886128598855    3.81459776577775   -3.25776606245602
H         0.38881381290375    3.36920880187169   -2.99861627213248
H         1.96115726713359    2.06443445420406   -5.13829512253989
H         0.44574488988109    1.61116567391462   -4.55533141548809
H         1.77898272062546   -0.46618411560728   -5.20406405774449
H         2.14277043196395   -2.16343030409838   -2.23906851461506
H         0.87067137041512   -1.04694561602753   -1.67926743400412
H         5.97796109811794   -0.69990100207833   -0.79289760310132
