32
 energy: -49.284553009818 gnorm: 0.113163587183 xtb: 6.4.1 (79825abcba525fcdf90b791dcacef51065a7a4e7)
C         0.77802709437340   -1.16124926288072   -0.08732583078033
C         1.76048131355141    0.00610631272260    0.01619465776120
O         1.27775752244320    1.12229838578580   -0.74634421134273
C         2.22747378432619    1.99352260875694   -1.16925999275574
N         3.22191273444009    2.57114155494293   -0.59275573671041
C         2.07507129312877    2.01213812540532   -2.73269850417066
C         3.33067969522465    2.52267042811031   -3.49212877408790
C         0.72586881064031    2.46340537822503   -3.34180190419963
C         0.46285518943978    1.02649255061897   -3.82770669199152
N         1.68956517525730    0.62768309804809   -3.15516649974237
C         2.11811434327344   -0.65569505548470   -2.77335458340276
N         1.47723859367170   -1.74195833091995   -3.07108137982260
C         3.34166437820645   -0.85585039502448   -1.89915903728847
C         3.16419428111962   -0.32334214910531   -0.51541542754232
N         4.22221164918393   -0.26523788399870    0.23741230598024
O         3.90352043653782   -0.10237955975297    1.57876762870884
H        -0.11395225433629   -0.59385094332073   -0.37577367082015
H         0.64700193570874   -1.71384415269870    0.84742923349715
H         1.00088924468540   -1.85626757149901   -0.90431536758776
H         1.85404952369908    0.39485459031861    1.03658165256536
H         3.35793608024533    2.47733535290884    0.42332134427706
H         3.97715689639822    3.04000085371240   -2.77133401283946
H         3.01601379285789    3.27299210332267   -4.22730332509985
H         3.82317217807680    1.65538065951121   -3.93991777649982
H         0.89602062223006    3.12045721947657   -4.19734370870457
H        -0.06003890241536    2.84774398686737   -2.67853157445242
H         0.48567705490078    0.78356539123056   -4.89895247534293
H        -0.46707890254107    0.56811735387562   -3.48959068693721
H         0.64384278980158   -1.57652640446626   -3.63071655928566
H         4.32101853490493   -0.58360787528258   -2.31769759307917
H         3.37835816052972   -1.93039037908105   -1.69591996928836
H         4.69044630395509    0.04512104830683    2.13795862687203
