32
 energy: -49.280988269289 gnorm: 0.131999092130 xtb: 6.4.1 (79825abcba525fcdf90b791dcacef51065a7a4e7)
C         2.30692635570137   -0.71434711293934    1.50177463992900
C         2.45477850420054    0.08497833405990    0.20644827872366
O         1.22813864282418    0.79684310027853   -0.01485626465103
C         0.89152679301753    1.66688112150743   -0.99952709748638
N        -0.30925975148437    2.07881373225617   -1.20769245825945
C         1.96973176357511    2.08039875255359   -2.06460465796424
C         3.31722669319474    2.48621171870218   -1.40619502058857
C         1.37001752341051    3.05256278270968   -3.10874848570581
C         1.62789349315437    1.90585916589627   -4.10301650989683
N         1.99610422949948    0.96119639931220   -3.05984355512994
C         1.89447640382407   -0.43657458046208   -3.17120914175744
N         1.86925764588124   -1.11244230528969   -4.27660396482643
C         1.76407646759948   -1.28786189302427   -1.92234546223932
C         2.82531474813981   -0.80895992833853   -0.98734103494853
N         3.98696233617604   -1.18437534950633   -1.43361963823713
O         5.10238324426436   -0.82315114416975   -0.69019896805488
H         3.29354341473257   -1.09057708637980    1.79470457670491
H         1.52674699468866   -1.46887539157521    1.36648615074353
H         1.91916388556703   -0.22109761850440    2.39984762617807
H         3.35910072609298    0.68115013783700    0.37333249988232
H        -0.97099947895991    1.70590748767103   -0.51288596981509
H         3.22435470776150    2.46563736514178   -0.31254968795048
H         3.53366591957465    3.51147393085935   -1.72941370906124
H         4.11843323446828    1.81488641987423   -1.72657884180452
H         2.02785584580293    3.91603358314548   -3.22827862857814
H         0.29897403422957    3.28740482493448   -3.05388788477767
H         2.52279685131015    2.01801544028147   -4.73044852349945
H         0.86736667117808    1.51092336915235   -4.77742910362039
H         2.05391504146883   -0.54697737805750   -5.10198804811929
H         1.82336738703182   -2.32601203164421   -2.27893201349870
H         0.83859109289766   -1.24780074386022   -1.33997045792710
H         5.84570601860842   -1.30951787076589   -1.09593531552310
