32
 energy: -49.292251646738 gnorm: 0.113437884307 xtb: 6.4.1 (79825abcba525fcdf90b791dcacef51065a7a4e7)
C         2.14593358017741   -0.99542242315565    1.41828602853416
C         2.43409410314112   -0.07497356263808    0.23153027081782
O         1.20137980503803    0.63448904040496    0.03800824477961
C         0.97777574099359    1.63155697019083   -0.85401590747364
N        -0.09229910702236    2.33183237386082   -0.71450326188745
C         1.87279959758679    1.92705657501354   -2.11080754125640
C         3.31397391678042    2.36180037101673   -1.72617212897884
C         1.20205754642856    2.91646747962898   -3.09374577104877
C         1.51024761835779    1.94542520094911   -4.24790948393219
N         1.97147032322996    0.97730918442526   -3.26495390396647
C         1.97783823983644   -0.42660818870053   -3.33891105380799
N         2.02716325064174   -1.19338482681996   -4.38243944228567
C         1.83864612281145   -1.15320207767836   -2.01450870000330
C         2.91547562770053   -0.75550602187151   -1.05947827313194
N         4.18985890037032   -0.82214547030926   -1.30652666599010
O         5.04658266183867   -0.58395630039067   -0.24040690792427
H         3.04009802187935   -1.62022489163146    1.52250691140979
H         1.34323943996266   -1.68203310691615    1.13448394585846
H         1.83574103912481   -0.36046020074092    2.25542010111335
H         3.17584678311638    0.66018953609136    0.56380730480091
H        -0.72157777484804    1.96670775748786    0.01378717348546
H         3.33204423899233    3.03190217332138   -0.85683579747940
H         3.78364312236278    2.87361454908138   -2.57466251874454
H         4.04429016302983    1.61271723845831   -1.40873236519909
H         1.67800856974739    3.89210837269942   -3.21297665667957
H         0.11913982457979    3.01129361122409   -2.94014941385918
H         2.34882224265832    2.26886134598303   -4.87979842399304
H         0.66658652590989    1.65797541870862   -4.87625353983968
H         2.08008548055097   -0.77882215192866   -5.31004110410483
H         1.80467961544230   -2.21075322928576   -2.31259749717823
H         0.95551860185664   -0.91212932251897   -1.41512699097206
H         5.88976940286557   -0.98569895200786   -0.52561259725026
