32
 energy: -49.284990308925 gnorm: 0.134383046222 xtb: 6.4.1 (79825abcba525fcdf90b791dcacef51065a7a4e7)
C         2.04812807149409   -1.07405148626648    1.27540527960045
C         2.48169295758643   -0.02510345075526    0.25052415063760
O         1.27568357809433    0.70489525486319   -0.01969012483822
C         0.91962374076066    1.68156624774756   -0.89100263454539
N        -0.11985757168424    2.40628312743917   -0.66925131590679
C         1.80052639742566    2.05055243170437   -2.13830879987956
C         3.23180830020099    2.46005860760083   -1.69371144776800
C         1.08872661946893    2.97088505707501   -3.15876229829672
C         1.46149168277678    1.96836674639810   -4.26601174979570
N         1.78517515158963    1.01258262374184   -3.21821291229009
C         2.09828377287051   -0.35779832903149   -3.19555762299877
N         2.26326649238931   -1.05424861010428   -4.27586711338639
C         1.87898366908440   -1.14684053136267   -1.91857892530162
C         2.97911434823118   -0.83150735142408   -0.95936855668453
N         4.18847650331284   -1.16685400264504   -1.29776513569611
O         5.20697806715517   -0.86696731777130   -0.40331359410279
H         2.91877850295408   -1.58524976964767    1.70133286137383
H         1.44257260249582   -1.83965661379747    0.78200169397163
H         1.50281287828283   -0.55863822724579    2.07363482282861
H         3.26461330601781    0.69477117654052    0.51488392643325
H        -0.55517201178025    2.16219121122712    0.23110142718418
H         3.73841516474940    2.85510383488481   -2.58387849839961
H         3.77591113320515    1.58929508734290   -1.30874150079896
H         3.07740901448057    3.16315376988330   -0.87086673082286
H         1.58982854383168    3.93645298944254   -3.25465790029385
H         0.07152830649636    3.18776773330368   -2.80724540222447
H         2.37063190334599    2.30625222192060   -4.78215072227261
H         0.68973914583217    1.67087791500800   -4.97671990784841
H         2.45941142592274   -0.47254954189630   -5.08720008041226
H         1.73285156929929   -2.11143383311511   -2.42516580795775
H         0.93993234297432   -0.97219275248124   -1.38475359748015
H         5.94676511132344   -1.37433889584673   -0.78930910523845
