32
 energy: -49.291378710975 gnorm: 0.115589484431 xtb: 6.4.1 (79825abcba525fcdf90b791dcacef51065a7a4e7)
C         1.09244554829224   -0.64542828921421    0.76092018230644
C         2.14013922206236    0.27996023162947    0.14072194261926
O         1.50418974649360    0.99706266332183   -0.92778395674028
C         2.00924983447058    2.16057281543205   -1.40841766808898
N         2.45458231586464    3.18414466683765   -0.76897320611335
C         1.97181654371819    2.01742555485169   -2.97239354712306
C         2.97936692380909    3.05088171427428   -3.54749404484924
C         0.65108487629229    2.18180788767468   -3.76210405533624
C         0.86219078088270    0.77555936143089   -4.35193240144553
N         2.00747806866467    0.60545665981020   -3.47127424503793
C         2.19203354306076   -0.54026398078809   -2.67770150283874
N         1.35799054724054   -1.53181748936795   -2.65479341940581
C         3.47846079048126   -0.63935257984750   -1.87980359567383
C         3.31922773687021   -0.54528779361650   -0.39804664670901
N         4.01210055927462   -1.32291695522484    0.37960787606512
O         3.75638493071116   -1.33769773975789    1.74405357127678
H         0.20273626658370   -0.05227085410675    1.00040256744756
H         1.53125312453849   -1.10938658736667    1.64888771645074
H         0.81525277094890   -1.40654546511906    0.02331954800414
H         2.53270300165053    0.98691122251381    0.88044067759376
H         2.33212854103128    3.03194991937220    0.24174753407201
H         4.00460805909920    2.90794134919233   -3.18203914597468
H         2.70779481370294    4.06877118590942   -3.24314479181188
H         2.98724908460073    2.85602396753449   -4.62323737071486
H         0.52549431387294    2.96972888821241   -4.50777692556839
H        -0.21620911866474    2.20538388419792   -3.08939318062749
H         1.17254087807683    0.83194001437612   -5.40436102723898
H        -0.00847464849622    0.12262922126788   -4.28242262190367
H         0.51321648416031   -1.29658573595615   -3.17067191851863
H         4.13548761718714    0.14719259240502   -2.27740580648727
H         3.87217032940493   -1.61194785300293   -2.19019036412475
H         4.61574312826559   -1.56544034641956    2.14820715006126
