32
 energy: -49.283226282017 gnorm: 0.119707724645 xtb: 6.4.1 (79825abcba525fcdf90b791dcacef51065a7a4e7)
C         0.74520280104330   -0.81419623031155    0.03043033397708
C         1.84532586679390    0.24535190435802    0.10618507306341
O         1.41245226975449    1.41100266026931   -0.61092806123212
C         2.32548771959692    2.08634376500924   -1.35263622571121
N         3.49221744347044    2.57693275583817   -1.12247586981445
C         1.78859898729474    2.07656567867620   -2.82897218453012
C         2.85031924033914    2.73573369510140   -3.75210687388035
C         0.33352440472476    2.24298758525406   -3.32903026981543
C         0.42044787887963    0.76161471132876   -3.73888001406497
N         1.78986409585129    0.64279514478567   -3.26268908472687
C         2.52365495120434   -0.43458530959881   -2.73609956091543
N         2.31563676987051   -1.66117610285569   -3.09877616385175
C         3.66641779368952   -0.22498995747767   -1.76064195707018
C         3.20038445225544   -0.32170741903627   -0.34527428629757
N         3.92886156921753   -0.96544098566430    0.51754353861292
O         3.39763820799926   -1.09052357618821    1.79405327139775
H        -0.21650476924308   -0.31665536703705    0.19878055531216
H         0.85072383903368   -1.60195620105100    0.78182588004816
H         0.71487245719681   -1.31516739552847   -0.94337552159445
H         1.99300901871096    0.55514094043055    1.14699738635291
H         3.86607257795888    2.51623615432368   -0.16525967588883
H         3.74031130715451    2.09339410933604   -3.73154947892096
H         3.16430131237604    3.71334371481101   -3.36717470782640
H         2.50907745167492    2.72303905623695   -4.79068680025520
H         0.27315386909352    2.94853012680017   -4.16040602610457
H        -0.48834522894146    2.52180389404642   -2.65665657331025
H         0.37546430102148    0.44426750201582   -4.78976973010470
H        -0.42581082387631    0.23745333216638   -3.29356134647263
H         1.52087588920363   -1.82797046628740   -3.71167305336494
H         4.26047798923609    0.66697103165119   -2.00543399235118
H         4.34751032351854   -1.05437294958511   -1.97400907242582
H         4.09966612861941   -1.43782234648487    2.37735738139448
