32
 energy: -49.292275962326 gnorm: 0.116214721585 xtb: 6.4.1 (79825abcba525fcdf90b791dcacef51065a7a4e7)
C         2.25131302205638   -0.80777376227911    1.45043280143693
C         2.47349687048001    0.12339985775975    0.25787175842416
O         1.24183177948991    0.84770923698328    0.12094290529735
C         0.89574023756959    1.70522973872286   -0.87139249552623
N        -0.26343634412792    2.25744466107258   -0.95062586510803
C         1.84206669317248    2.00213383682452   -2.08968110381691
C         3.23383960473454    2.55010224905868   -1.66940887324667
C         1.24574802300336    2.94333359928539   -3.16371250403550
C         1.58712115438776    1.86238343455605   -4.20535026673041
N         1.79686006816006    0.91621304446290   -3.12047799108359
C         2.01149950495777   -0.47082909231883   -3.20133716276956
N         2.24319993059687   -1.15856520171952   -4.27495945031150
C         1.83478527214239   -1.25528238349689   -1.91496248020436
C         2.85791980247952   -0.71778818377078   -0.96939240416759
N         4.01176941879562   -1.24253586038287   -1.25713774397372
O         5.20668140073470   -0.93532616283270   -0.62064063210133
H         3.11660097829692   -1.46872175554765    1.57369944583306
H         1.28056737949254   -1.29898510883251    1.33791593442505
H         2.16443031753087   -0.16741456648230    2.33506910363220
H         3.27770560719779    0.80759643090667    0.55145853198962
H        -0.95802739013781    1.95818887935235   -0.25226790628220
H         3.14612663530331    3.37901541502624   -0.95504341202076
H         3.65861959509216    2.80954306027224   -2.64651239302197
H         3.92526212796678    1.82973318331866   -1.22414640770269
H         1.62756626842123    3.96531576099580   -3.11484716349513
H         0.16072633133368    3.03412893623489   -3.02307550707452
H         2.49154505917000    1.94417416650996   -4.82375923227979
H         0.70296527793541    1.58706001628580   -4.78126091435269
H         2.28434972366016   -0.56361066929211   -5.09924315172555
H         1.97250586583696   -2.31718140500569   -2.16361604703783
H         0.80928807204002   -1.00237674043193   -1.62916018311106
H         5.85716305618404   -1.37051841587790   -1.20475076050783
