32
 energy: -49.292050072944 gnorm: 0.113233496255 xtb: 6.4.1 (79825abcba525fcdf90b791dcacef51065a7a4e7)
C         2.20609550635667   -0.70764840022860    1.49806925479504
C         2.52431348226388    0.10868431982975    0.24467785091799
O         1.31564765527569    0.82636170268495   -0.04590531934059
C         1.02907841092535    1.50175324120341   -1.18677107667875
N        -0.23900744968607    1.68797416245883   -1.29717775468742
C         2.05821388412771    2.05846695507736   -2.23503773876283
C         3.42604444056468    2.58738657078004   -1.72199426457802
C         1.32734133332382    3.08216532342457   -3.13662710238455
C         1.40060686670337    2.02219516027448   -4.25067087169343
N         2.12100357497754    1.10107496891114   -3.38537157308168
C         1.87431747339218   -0.28218572018203   -3.33814810454083
N         1.52431180007661   -1.05604730249715   -4.31690504783814
C         2.03969718491319   -1.06561144165834   -2.04964184881951
C         2.97789311502911   -0.78104576678070   -0.92331251834619
N         4.14629510076217   -1.35011767299068   -0.94612443666863
O         4.92790923358411   -1.11540225849001    0.17695571892465
H         3.17265933238792   -0.90718823520057    1.97420829586143
H         1.68470366627021   -1.64021012340541    1.26402884761024
H         1.57870234988193   -0.11790471920639    2.17539495553061
H         3.38261279589048    0.76081375714708    0.44246389769425
H        -0.70843915883189    1.32663433777312   -0.45528584179720
H         3.84229535533914    3.17492823225348   -2.55063085534342
H         4.12454123143839    1.83141461298008   -1.34372519634214
H         3.16048972149269    3.27539226190658   -0.91491047925295
H         1.97643786727265    3.96039470722222   -3.13391043684248
H         0.30290265173080    3.22086538008193   -2.76705665338405
H         1.94033558754965    2.31591925754076   -5.16145132742753
H         0.42935732685493    1.67250540013684   -4.60223747911543
H         1.38775594981481   -0.53235547377717   -5.17841952313222
H         2.21706524687979   -2.11348528429637   -2.33057967930904
H         1.02278279405185   -1.11815170831381   -1.64912548367426
H         5.75674153045786   -1.58278831782980   -0.04279554527186
