32
 energy: -49.295414095996 gnorm: 0.112747590034 xtb: 6.4.1 (79825abcba525fcdf90b791dcacef51065a7a4e7)
C         2.32520074786105   -0.37825619759517    1.68063435022432
C         2.48484185513147    0.18559142653940    0.26810386618879
O         1.29086651496644    0.95299606474166    0.05389489130019
C         0.98983928737239    1.68621604574300   -1.04684185411096
N        -0.20210303078279    2.12396208315626   -1.25314629078394
C         1.94884469279792    1.97499716348697   -2.25714225095634
C         3.35687008380964    2.46121635092084   -1.81557074309789
C         1.40135858946849    2.86857709934157   -3.39590046095307
C         1.54188245181820    1.67485778405974   -4.35781799531924
N         2.01333400571489    0.85647236413706   -3.25140241452658
C         1.88730605871784   -0.54374541519710   -3.25256281070873
N         1.67840983248860   -1.24219798354141   -4.32394381049576
C         1.86854254829616   -1.23046603650988   -1.90000323172457
C         2.85072964328032   -0.78155010432084   -0.86869822803622
N         4.07211213678031   -1.19662544212025   -1.02827172780796
O         4.91735845338473   -0.89506632832402    0.03094580695786
H         3.23582470154807   -0.93954715665822    1.91830352002459
H         1.45724790896365   -1.03715544331457    1.77447134747673
H         2.20529612664903    0.47731391964030    2.35429045276414
H         3.33570127046224    0.87310628149968    0.33467273425517
H        -0.88833425343987    1.88552357433074   -0.52379838193889
H         3.42838764436043    3.54734537369671   -1.95811059461088
H         4.02705829894733    2.06901518919010   -2.58984774109085
H         3.60991554242269    2.20026954248870   -0.78448872515320
H         2.05626917145058    3.73241877186340   -3.52815109507257
H         0.38341299502202    3.22224696770099   -3.18614102808541
H         2.29860246593984    1.89351155591075   -5.12376011095733
H         0.62628801260562    1.28971019018529   -4.80788002426911
H         1.65948990749097   -0.77543250403692   -5.22775786238846
H         2.08313457977318   -2.30607519091442   -1.97376157874664
H         0.87182622933528   -1.15908485616780   -1.45418934403285
H         5.61522200840948   -1.56822690269551   -0.08543556417750
