32
 energy: -49.280508420455 gnorm: 0.141778077542 xtb: 6.4.1 (79825abcba525fcdf90b791dcacef51065a7a4e7)
C         2.28799258004761   -0.89641291952834    1.48393964964623
C         2.36388423331004   -0.00817119555671    0.24139431632553
O         1.04678748889829    0.50466182187038   -0.00886747715450
C         0.90270564085889    1.47785469928805   -0.94266957982209
N        -0.04169034861033    2.33903539464679   -0.79640395914646
C         1.90708382368289    1.89879886423293   -2.07489898049855
C         3.37069544872117    2.33548876739113   -1.79016591210106
C         1.21521863572136    2.92253223637357   -3.00671921906821
C         1.50775479857672    2.03446164281750   -4.22972834212361
N         1.88790020215773    1.00390725688467   -3.27598634469450
C         1.91741836900495   -0.39750542005984   -3.38399274185857
N         2.03354747058891   -1.16339404475252   -4.42286689324268
C         1.95007755835093   -1.08783240140363   -2.03353476555767
C         2.95721873644304   -0.57142413268779   -1.05947306721600
N         4.15195126838873   -1.06150783991769   -1.20765736553139
O         5.00484340008009   -0.70785430955728   -0.17091958940528
H         3.30860526034641   -1.06378984313576    1.84602373533991
H         2.01661744533498   -1.91533332667497    1.19333257298543
H         1.62495958896439   -0.60418257270457    2.30563214824269
H         2.99715618090134    0.84597672733476    0.50685205576889
H        -0.73297595931465    2.17644717713865   -0.05114973377118
H         3.29474608631286    3.26642495418813   -1.21336600394459
H         3.79903271409897    2.58034386263192   -2.76947793154970
H         3.92282285744876    1.50727297766177   -1.33798309705047
H         1.62016682699060    3.93507439264605   -3.06499338193316
H         0.16423194145534    3.05078263039482   -2.71642034413054
H         2.31463301317234    2.34661033488970   -4.90693784345798
H         0.67858494410834    1.80476952154290   -4.89974815349083
H         1.88326029243125   -0.71185495735284   -5.32210770296050
H         2.07798464063575   -2.14134061263704   -2.32021458925090
H         0.97507741770864   -0.98611601104056   -1.54741006404745
H         5.86799753567787   -1.03065936687808   -0.49413028996752
