32
 energy: -49.290865201440 gnorm: 0.130192300587 xtb: 6.4.1 (79825abcba525fcdf90b791dcacef51065a7a4e7)
C         2.03920158208837   -1.11222182944493    1.18196546921647
C         2.46819060836737    0.00850676417987    0.23402684752433
O         1.27543666593325    0.80052946910680    0.13199484023510
C         1.01421839127888    1.50371010214658   -0.99811678677967
N        -0.16498870706204    1.94714356764277   -1.25839924403091
C         2.03395853626772    1.90825086054749   -2.12256763355320
C         3.38030845421083    2.37565822679295   -1.50385751380597
C         1.54178745949721    2.99519236794245   -3.10812440807009
C         1.62010111522128    1.88776461990620   -4.17464625715791
N         2.17100689105320    0.91935287855938   -3.23930769668319
C         1.73663070933669   -0.41772360565047   -3.24547314234989
N         1.07677549167679   -0.96816277627993   -4.21549307585134
C         2.01233482994303   -1.23427383659887   -1.99703906625973
C         3.00303186282785   -0.62901602408949   -1.05789618401300
N         4.27145566536492   -0.89591487305455   -1.15481093583566
O         5.14390103432294   -0.34059045546120   -0.22864956938356
H         2.90874293448695   -1.73575099701245    1.41835365193361
H         1.28267353960212   -1.75297401249728    0.72001559095047
H         1.74394683822926   -0.72052209850513    2.16154999412777
H         3.19929386386402    0.65613643139764    0.73115224841564
H        -0.83298853594658    1.83964485715505   -0.48255464864222
H         3.78750888123472    3.30075908694233   -1.93220879655131
H         4.10271136805254    1.58123939481659   -1.72636954876997
H         3.28874592280503    2.50943633101168   -0.42266600327953
H         2.16474808658539    3.89146730614852   -3.07302714346378
H         0.49216490705578    3.21126346743811   -2.86958635589294
H         2.26959064544839    2.14956061180066   -5.02124426285876
H         0.66840465103227    1.66273166091443   -4.65718297080697
H         0.83951856095634   -0.26456894056707   -4.91103077051782
H         2.36711369062849   -2.16127584694928   -2.46950526923071
H         1.01027756857818   -1.35671449058611   -1.57492742269919
H         6.01151611756267   -0.73060360168189   -0.44964082374953
