32
 energy: -49.293965350343 gnorm: 0.123300744770 xtb: 6.4.1 (79825abcba525fcdf90b791dcacef51065a7a4e7)
C         2.04463744328349   -0.98571795114995    1.29097330207653
C         2.39789218692433   -0.01648052610356    0.16206155577233
O         1.16927140192173    0.68323193900752   -0.08545803757256
C         1.09423632791704    1.74642037372207   -0.92441598866600
N         0.04096115171529    2.47909380428602   -0.83108501001635
C         2.05718954081452    1.96769823384010   -2.14575550331894
C         3.46224330169790    2.42573074332519   -1.66621389651726
C         1.37238972328847    2.93185572072096   -3.14397690385160
C         1.41765087384032    1.77362165301046   -4.15711232271122
N         2.03694178120712    0.88771004511326   -3.18355385023121
C         1.85450640238523   -0.50513595096172   -3.24004796035160
N         1.68749825297076   -1.18487448912285   -4.33064168698787
C         1.92695589023826   -1.35073668961388   -1.98264381586865
C         2.94476439214030   -0.82548670544474   -1.02452829026346
N         4.22063263467516   -1.04090799195167   -1.14814200008099
O         5.05234806835674   -0.33071363642549   -0.29304291940452
H         2.89110227070347   -1.20280855138823    1.95213828344956
H         1.42662518464411   -1.80102359978260    0.90414868454042
H         1.40883623159354   -0.34931291465360    1.91622152812519
H         3.03456285177741    0.80429997367312    0.51140334460325
H        -0.58897364260943    2.13862388689712   -0.09150608737918
H         3.90231359714361    1.54371533558136   -1.18300008985058
H         3.33390555761771    3.20515460270902   -0.90561759456395
H         3.98772470281704    2.77757161917944   -2.55802815464654
H         1.93282424218599    3.84925892007276   -3.33608379244927
H         0.32331595134060    3.14734826764023   -2.90251921735469
H         2.02821533324691    1.99281273798892   -5.04383002630726
H         0.45520028243598    1.37623560055184   -4.48111982763912
H         1.55143596676830   -0.61940651985084   -5.16541162699771
H         2.19457935998544   -2.39606219050929   -2.19263754933245
H         0.95866109553195   -1.29177275732169   -1.47646482391512
H         5.87481579497443   -0.77791040091458   -0.57100913468975
