32
 energy: -49.289539767967 gnorm: 0.129534332164 xtb: 6.4.1 (79825abcba525fcdf90b791dcacef51065a7a4e7)
C         2.07964397887902   -1.01095756436071    1.35995889577636
C         2.41238637536701   -0.00170252744523    0.26025958360689
O         1.23580438850369    0.72714943301891   -0.12026917395925
C         1.01620999822313    1.77935905717108   -0.94760437561154
N         0.01907693299319    2.57283676412182   -0.77145562286086
C         1.90680066357322    2.01198693193943   -2.22065013508185
C         3.37738528957858    2.27346089832338   -1.79293269238491
C         1.29970656287687    2.98029183036045   -3.26411492347954
C         1.24005406166413    1.77913339420289   -4.22518624764839
N         1.69371794190206    0.87862991388122   -3.17663522391447
C         1.95084577746868   -0.50351802161227   -3.18345972020745
N         2.05167083687902   -1.08845193947911   -4.33542217513385
C         1.93729362002247   -1.29047770904929   -1.88659215162028
C         2.97383520308292   -0.70198506793260   -0.98711174376247
N         4.23938478645381   -0.91854536385016   -1.18962676184094
O         5.07425869595421   -0.55702384576432   -0.14100444254219
H         3.03906520746498   -1.43095132339006    1.68227289126093
H         1.44438650749880   -1.79427006693543    0.93667978949746
H         1.56819429587265   -0.56169951308602    2.21831564696750
H         3.12870774776784    0.69329102192409    0.71295981340071
H        -0.67562239882282    2.31173167834790   -0.05806123235410
H         3.77144936071341    1.26387137724427   -1.61814386816621
H         3.55175682825308    3.00482698421139   -0.99469897586059
H         3.99223438560237    2.64049935941202   -2.61906750406010
H         1.98814391462367    3.77845144595369   -3.54979966383759
H         0.32338282231297    3.41194253920526   -3.00766952568377
H         1.94044391171642    1.80821782292057   -5.07118277643825
H         0.25727035316637    1.49115414279848   -4.59990188296116
H         1.95868958371326   -0.44134123759466   -5.11497977270306
H         2.24448277634789   -2.32310116902444   -2.10510691498082
H         1.02123598086122   -1.29420572797858   -1.28816653635012
H         5.88110299040252   -0.95660595455805   -0.51921040119617
