32
 energy: -49.285083112463 gnorm: 0.135948444691 xtb: 6.4.1 (79825abcba525fcdf90b791dcacef51065a7a4e7)
C         2.09517366451817   -1.03262015142798    1.21513614742136
C         2.41499553895002    0.03216107372167    0.16508532329228
O         1.14297589722034    0.62438550542392   -0.13758406373487
C         1.05936264142260    1.64644662617266   -1.02541863784318
N         0.02227474518759    2.39017063897834   -0.86345289632805
C         2.07617851916126    1.96412664241810   -2.18000854150763
C         3.44705035689114    2.39941129952997   -1.59249883137128
C         1.37088800875282    2.93718101546506   -3.15506079589149
C         1.26353622738747    1.83897209702382   -4.22856481041798
N         2.01498785183153    0.99045878981722   -3.31668636154253
C         1.86933328072981   -0.40782202272379   -3.32615811969571
N         1.34123225344315   -1.07306870523132   -4.30487514863189
C         2.26134026864382   -1.26882619883323   -2.14025887764745
C         3.06636144240480   -0.70066662917535   -1.01823274961663
N         4.31794189472740   -1.05142798263755   -1.02450080054322
O         4.87601169578967   -0.59744816678761    0.16284137845318
H         3.02408330222260   -1.35254268108002    1.70046760613026
H         1.75502530316484   -1.97407958804920    0.77439931386321
H         1.35268702683487   -0.66046907989968    1.92956393487944
H         3.16581953273585    0.75945454485400    0.49429252080831
H        -0.65350671392165    2.09091411250372   -0.14687803116363
H         4.05233611295050    1.53040421427331   -1.30342364841813
H         3.33637741957993    3.02461019607872   -0.69843133076903
H         3.90913814514971    2.95785242517990   -2.41095699170111
H         2.00420592695475    3.79091168270817   -3.40540635679196
H         0.45773367269715    3.43605786218179   -2.80496698062034
H         1.74833534264023    2.21499139629605   -5.13998198893797
H         0.21008081882549    1.70490332886490   -4.47648603383754
H         1.04703845725084   -0.56570594637142   -5.13622396667748
H         2.86976058902412   -2.05329806263301   -2.61233270566147
H         1.35313773319128   -1.70820988704615   -1.71670387083758
H         5.85125884813470   -0.64032420381004    0.13531029527701
