32
 energy: -49.291268950429 gnorm: 0.125398589417 xtb: 6.4.1 (79825abcba525fcdf90b791dcacef51065a7a4e7)
C         1.91856006088736   -1.01169263332491    1.37471314034241
C         2.33348014169402   -0.01629754402978    0.29042454171528
O         1.13048599460458    0.60589419581991   -0.18502790212280
C         1.05795408706013    1.64273804305024   -1.05654628640509
N        -0.01389640791362    2.35197759416325   -1.00154275106341
C         2.11321069245841    2.01484078179854   -2.15921850370821
C         3.51235055861030    2.50013138003996   -1.68929228337296
C         1.57348626565721    2.92984820120357   -3.28458749442872
C         1.55660621031783    1.68849636810069   -4.19494939580410
N         2.06509476634151    0.86035476791861   -3.11245340175790
C         1.80871790746194   -0.52173641068132   -3.08818207926419
N         1.34587769205439   -1.13648365576382   -4.13086882248576
C         2.02742876104822   -1.42789767660748   -1.89135626467238
C         2.93511480366479   -0.81675460332874   -0.87527691741313
N         4.20450708284159   -0.80602952073341   -1.15465956573884
O         5.10494466946219   -0.23954690848279   -0.26267827502285
H         2.61466534668379   -1.85235048943438    1.47219115794014
H         1.00546102045762   -1.51114934581263    1.03842625232440
H         1.85371053769045   -0.42998624421369    2.30078123061431
H         3.03341324215587    0.72575013565743    0.69108492056147
H        -0.67104356842430    1.99630952846494   -0.29346618291831
H         4.06454667699252    2.42606018084270   -2.63517892231386
H         3.97386406386466    1.87343776016152   -0.91680329014678
H         3.49179059449493    3.54822232107860   -1.37890859523556
H         2.20287736810931    3.76480119805602   -3.59977135328064
H         0.61989557733356    3.39977299753748   -3.01048876586288
H         2.08248620507507    1.77169849791800   -5.15600590185009
H         0.52869692574077    1.38584390061090   -4.39746276722511
H         1.09729385647878   -0.49481488100938   -4.88025195820677
H         2.42540253056236   -2.35411923402861   -2.32971182481210
H         1.02744548579274   -1.57582933014575   -1.47250259247951
H         5.86157788698226   -0.24248271713815   -0.88009294873904
