32
 energy: -49.288113582045 gnorm: 0.130195921584 xtb: 6.4.1 (79825abcba525fcdf90b791dcacef51065a7a4e7)
C         2.15293792897817   -0.95475445009695    1.36401484575828
C         2.44493868408374    0.04419892728998    0.24353302190379
O         1.18731970037444    0.69129047106629   -0.00149659519672
C         0.99809069736296    1.41033480499170   -1.13596473147599
N        -0.21960254694168    1.72881481567502   -1.40186555611969
C         2.07745492602853    1.93874577685704   -2.14772935792277
C         3.36839644311683    2.43391588556480   -1.43906402700808
C         1.60918889807676    2.99771470189437   -3.17452443850941
C         1.86729561583775    1.91986857935220   -4.24299379371384
N         2.23206923889621    0.92849096548034   -3.24285013762047
C         1.66130137107397   -0.35134206379309   -3.12995330020668
N         0.84205058490408   -0.90161412034583   -3.96981025064413
C         1.93184021718628   -1.24342340761977   -1.93314324040510
C         2.96074642198228   -0.71931355075064   -0.98632335248989
N         4.22298104863773   -0.88830934049312   -1.24657437743323
O         5.10131710141077   -0.32938033966879   -0.32818167015857
H         3.08167571384617   -1.53211253475231    1.29420127532354
H         1.31168156742735   -1.58263016437348    1.05684135113847
H         1.97318106934697   -0.47319708383087    2.33147536763150
H         3.23254058408584    0.70599355380804    0.62139669214609
H        -0.80436181577578    1.25052484715206   -0.70257313205472
H         3.08129083269661    3.32629286486981   -0.86780023615626
H         3.99962731954998    2.58619002648146   -2.32271499468116
H         3.90755401367687    1.80689939769839   -0.72393131296484
H         2.24374849767559    3.88338513823889   -3.24897256667824
H         0.57591898384426    3.28822480659980   -2.94376093859837
H         2.72988416620294    2.06129848719172   -4.90860670907431
H         0.93431638358704    1.60389184887271   -4.71087854151941
H         0.58487149479804   -0.38142421726623   -4.80549511980370
H         2.30864399693123   -2.19917235704700   -2.32427997373337
H         0.97026230140986   -1.36305153643249   -1.42486601241461
H         5.99713046047750   -0.60713190072138   -0.60035040140056
