32
 energy: -49.288067034101 gnorm: 0.125673555853 xtb: 6.4.1 (79825abcba525fcdf90b791dcacef51065a7a4e7)
C         2.17434935234616   -0.44730044252446    1.59261037926686
C         2.31823470639445    0.27450508924856    0.25210838804215
O         1.05107124280598    0.88888020776753   -0.02576291884900
C         1.01362470343392    1.74998103788616   -1.07311836429935
N         0.21994736728811    2.76133969810545   -1.02686310599378
C         1.95573798600213    1.84074820313154   -2.32695121179646
C         3.39264068218647    2.30598221304671   -1.96253668852011
C         1.50806723151690    2.66307889629508   -3.55916852386272
C         1.62161673986687    1.39572496071939   -4.42572412635400
N         2.01929879715148    0.65422086933221   -3.23904921078074
C         1.71709740487341   -0.71042275888151   -3.08766790820928
N         1.57851006189140   -1.48274978981398   -4.11899490941334
C         1.84926518207711   -1.37391833531141   -1.72985348898311
C         2.82694572173664   -0.67854647762327   -0.84080581185858
N         4.08653922439619   -0.97312679868141   -0.96797923534229
O         4.92212892650933   -0.33507364986618   -0.06133760276051
H         3.10271736972061   -0.74632636823054    2.09209659555661
H         1.81346576051431   -1.46925186114195    1.44538924062973
H         1.53648828779058    0.02999164290960    2.34461796784103
H         3.00892630758339    1.08734638107435    0.50371121953501
H        -0.30670432512473    2.84357513108804   -0.14618727783776
H         3.94433481187564    1.49858727842686   -1.46368237421267
H         3.39793049740292    3.13437522720867   -1.24405503457404
H         3.92245576309847    2.57941431758774   -2.87893520203218
H         2.19092051094184    3.42429151734081   -3.94242727607948
H         0.49498708259458    3.08449404361203   -3.59621583527885
H         2.32530939160913    1.53730995588149   -5.25751274806824
H         0.66509974588594    1.09528686719741   -4.85469949369589
H         1.60678957355295   -0.92949331444412   -4.97235026639533
H         2.11989139494423   -2.42279999144341   -1.91702669500640
H         0.91401568317242   -1.48400093840899   -1.17264714866382
H         5.84356062935468   -0.61002370578769   -0.23183512936074
