32
 energy: -49.293017012570 gnorm: 0.115407457662 xtb: 6.4.1 (79825abcba525fcdf90b791dcacef51065a7a4e7)
C         0.75111228821148   -0.92041372565073    0.47381112816777
C         1.77894292805941    0.16428432553867    0.14877861299261
O         1.25880897122142    1.07097022232472   -0.83496620791169
C         2.09753577105091    2.05969793382298   -1.23346996958588
N         2.70457737244787    2.99242321189699   -0.58815324341458
C         2.04630981064910    2.02291590413337   -2.80316293583707
C         3.34715617563252    2.61308004267095   -3.41425625631157
C         0.71589482501425    2.35452007628440   -3.52081957988594
C         0.61819828032261    0.90360023407380   -4.02607703844470
N         1.78785177940000    0.60580925010551   -3.21403768511742
C         2.19469267042921   -0.70353934159452   -2.90326290865614
N         1.76290095340241   -1.77370708410276   -3.49286259002974
C         3.25222648493589   -0.91048998718597   -1.83548561465055
C         3.03289407730262   -0.52707665471253   -0.40905842317960
N         4.11630723700861   -0.67944011009046    0.29274478789166
O         4.11138526263759   -0.21473958709519    1.60093063759461
H         0.17204676991886   -1.15909579786492   -0.42534634312566
H         0.09043820644623   -0.68094506680532    1.31194014793919
H         1.26511345499216   -1.85990093777135    0.70480132296276
H         2.09412065845465    0.70348599265802    1.04933089268205
H         2.57553929137826    3.01221666257900    0.43295986587327
H         4.02601738104748    1.80391511476595   -3.71343548655049
H         3.82846864049601    3.31219909509970   -2.71995824726250
H         3.19221602878305    3.14684727596000   -4.35571335318957
H         0.80242811411137    3.14930770989370   -4.26475851867755
H        -0.06151620772492    2.71166697603747   -2.83279864218853
H         0.73869499432014    0.76281523307646   -5.10901844948749
H        -0.25487503902466    0.32153888022115   -3.72916756955830
H         1.02360829718003   -1.53360233107530   -4.14929529685919
H         4.16539341480503   -0.37984799484694   -2.14039596429265
H         3.41869600960296   -1.99083009343851   -1.88490091646173
H         4.90520667001877   -0.63619895093769    1.98292919907852
