32
 energy: -49.283772870526 gnorm: 0.133921126897 xtb: 6.4.1 (79825abcba525fcdf90b791dcacef51065a7a4e7)
C         2.16579133653270   -0.95157509565175    1.32705961112471
C         2.33334838820343    0.04329489243448    0.17779455578353
O         1.05432190625121    0.47132121500516   -0.31338488865703
C         0.99402464277108    1.70215715377236   -0.88018070567274
N        -0.08877104324871    2.36745955419961   -0.68059150564522
C         1.90031470539206    2.07566994586979   -2.10779608425581
C         3.36102743880143    2.49452180893282   -1.78405016345395
C         1.30069916995802    3.05313400315892   -3.14703697929431
C         1.48460688302553    1.91286574811977   -4.16486032523365
N         1.65676894494664    0.96099570370055   -3.07836120852117
C         1.87838382861504   -0.41380080936257   -3.27153362351937
N         1.76172578753334   -1.07444836475294   -4.38025656721249
C         2.12945596560987   -1.25303481342038   -2.03298457302893
C         3.01037605655362   -0.79560577117115   -0.91739258262909
N         4.25780609011166   -1.11755910816691   -1.08999269882769
O         5.17369317429699   -0.62460293913865   -0.17050040212966
H         3.10064662160946   -1.06327806625842    1.88771833768526
H         1.92133688705766   -1.94560749186006    0.94178392575970
H         1.39919117744761   -0.69189818046352    2.06535629002245
H         2.95562070837595    0.90614647882993    0.44110833284128
H        -0.65335099279382    1.92115743986968    0.05546453621784
H         3.48132804957620    3.25682559399669   -1.00332657704394
H         3.78123433374430    2.83433350877928   -2.73821631107875
H         3.94172158226221    1.61728870758748   -1.48654088657353
H         2.00205084152138    3.88311840526409   -3.25590508666704
H         0.27609586798348    3.35958780590197   -2.89890642620722
H         2.30292278461827    1.89447069425908   -4.89774686545738
H         0.57533663089981    1.75809048607850   -4.74665057976982
H         1.43801394247715   -0.53915530482568   -5.18261546295144
H         2.44841369409521   -2.27012001560561   -2.30173862724420
H         1.16078009879257   -1.55328812147688   -1.62212726045093
H         5.99700477278181   -1.05127685475339   -0.47678573475696
