32
 energy: -49.289956888631 gnorm: 0.128025900652 xtb: 6.4.1 (79825abcba525fcdf90b791dcacef51065a7a4e7)
C         1.91659520180784   -1.27199157922075    1.25614062264972
C         2.40956850244385   -0.16646906669250    0.32155563269622
O         1.29607017290355    0.71646306954986    0.11925686990506
C         1.06188362026578    1.55047199893908   -0.92450367009165
N        -0.09357864989683    2.11590729920249   -0.93447669486498
C         2.02601787182987    2.00317856252059   -2.07923950156934
C         3.43734651476835    2.38651425210237   -1.55470620117725
C         1.54018375526082    2.99552732423923   -3.16284714335069
C         1.57276663655941    1.86767105988099   -4.21016595876551
N         1.93560831209713    0.95040551855321   -3.14098565130392
C         1.75015544155248   -0.44237911423261   -3.18844515940894
N         1.55487961575336   -1.09573668682963   -4.29040800155407
C         1.88473250335281   -1.25723650765067   -1.91594716587579
C         2.93689111792070   -0.67976738944998   -1.02752232226240
N         4.18481326814566   -0.77600238339055   -1.37817253009900
O         5.05329197224465   -0.08938925992861   -0.54054004586400
H         2.75705772873952   -1.80015442950327    1.72029243430671
H         1.29053359913797   -1.99299250118120    0.72275495371278
H         1.26649891780366   -0.94759838477469    2.07610023283720
H         3.26324023211638    0.27416340627396    0.84896196047270
H        -0.71355715168928    1.85614742791789   -0.15481904443342
H         3.35809501167268    3.37680490807861   -1.08763850199265
H         4.06056084474008    2.50942952026385   -2.44855999004404
H         3.82441510763530    1.61764958521935   -0.88070294124075
H         2.21717313158045    3.85019292559449   -3.22491666123957
H         0.55884382148365    3.46001804774093   -3.00001311145511
H         2.50178524766992    2.03829015332256   -4.77133930325774
H         0.67861749822963    1.74165634485672   -4.82157848333025
H         1.54220968632230   -0.52256630806688   -5.13089774506302
H         2.19579740572194   -2.25303066924913   -2.26244060503201
H         0.95578464927648   -1.36327952287862   -1.34752876755046
H         5.97197660647359   -0.20448961511767   -0.85114232143984
