32
 energy: -49.290194635458 gnorm: 0.121784499941 xtb: 6.4.1 (79825abcba525fcdf90b791dcacef51065a7a4e7)
C         2.27256000673394   -0.88484532918955    1.31689006857396
C         2.43129118302400    0.09859807290856    0.15659040396322
O         1.12194088106948    0.64581591372871   -0.05911059933410
C         0.89008625661401    1.66933921495268   -0.91846722521045
N        -0.24876334450939    2.26526288199336   -0.86549401533985
C         1.89618658175397    2.02213884641441   -2.07224687825794
C         3.32994426238595    2.31127665683806   -1.54815888476803
C         1.41511898541795    3.06683613097393   -3.10770712983576
C         1.48396765060274    1.89653910996249   -4.10553619564924
N         2.00646770394387    0.95996077254542   -3.12268757573192
C         1.93060777035799   -0.43053288897437   -3.31573381773776
N         1.88522199860354   -0.94803832373112   -4.50294025555749
C         1.93327790784611   -1.30202714743860   -2.07402316998033
C         2.86759613627385   -0.74830899760692   -1.04920479267243
N         4.08098695917266   -1.18674538641604   -1.20726394869985
O         5.00164928107857   -0.70173784461730   -0.28831367921711
H         3.23331537569918   -0.87419047069226    1.84377313075113
H         1.96756693396843   -1.84462675020936    0.89016464665590
H         1.62381787524952   -0.50777782254564    2.11510284294859
H         3.15384694722544    0.86558333785590    0.45778238675195
H        -0.85843047337792    1.88905806812216   -0.12624404794944
H         3.78534123115100    3.22966268378082   -1.94095567865073
H         4.01825727248617    1.49594344558813   -1.80101420449394
H         3.29510251016379    2.46795150180694   -0.46672723448302
H         2.11679381244718    3.88331707213364   -3.29109698340932
H         0.46124233508994    3.51630361886709   -2.80210454828608
H         2.09514375029413    2.03329848066830   -5.00823361120839
H         0.52253832877914    1.56760701212135   -4.50134550697607
H         1.89853023887488   -0.32312193751521   -5.30569190969929
H         2.35657809865137   -2.26862540374473   -2.38213005220065
H         0.93676442509329   -1.26800703582378   -1.62336561337981
H         5.78451480247461   -1.26800812607999   -0.43030969171193
