32
 energy: -49.294942599106 gnorm: 0.109267695723 xtb: 6.4.1 (79825abcba525fcdf90b791dcacef51065a7a4e7)
C         2.17379940871772   -0.34375108794502    1.49726140766144
C         2.43676916212887    0.39423912284310    0.18391865748027
O         1.19274114618563    1.06262918226764   -0.07302787802462
C         1.00514065143279    1.83161613201491   -1.17453387468811
N        -0.12478011060255    2.43815965021806   -1.27599144809950
C         2.05385135854914    1.92147754148332   -2.34074300544717
C         3.47029359370446    2.27964031209443   -1.81221599408307
C         1.49135393439713    2.82696561718750   -3.46265404888293
C         1.40701565098205    1.56227014410535   -4.33639915847517
N         1.99843764922014    0.75586582260151   -3.27993866415468
C         1.90895258783804   -0.64355920446732   -3.17945877563291
N         1.72371628715113   -1.49493009526787   -4.13872202401741
C         1.91636027061500   -1.29409365983885   -1.80901915717772
C         2.85715449448485   -0.69320376438304   -0.81723057425092
N         4.03830376483328   -1.23524164623102   -0.79257737264068
O         4.95194456445524   -0.70430333799801    0.10780367041007
H         3.11792925803368   -0.79202903939247    1.82655742988189
H         1.34796411211372   -1.04992002204440    1.37229247129616
H         1.87355312670412    0.33505253958091    2.30303289890887
H         3.29940873832180    1.04981101439138    0.34868606395131
H        -0.69454504819472    2.34275239475312   -0.42394687193167
H         3.70430485429663    3.25881694658038   -2.24989221077514
H         4.13050287544825    1.45193488564950   -2.09770906487809
H         3.67091309742642    2.50595316983583   -0.76160204909564
H         2.07942869885707    3.61903415033968   -3.93107270600859
H         0.50071486275859    3.18604221893584   -3.15444494065142
H         1.95499189329657    1.59618708245696   -5.28806803525802
H         0.38323508733362    1.23227648149667   -4.51580154056303
H         1.70154096604590   -1.21038828104326   -5.11527311007828
H         2.14764974956745   -2.34935068435527   -2.01239781435165
H         0.90031667683094   -1.12523595982115   -1.43965319214225
H         5.68672043392411   -1.34754206953741    0.10061485825591
