32
 energy: -49.291278476146 gnorm: 0.113363759781 xtb: 6.4.1 (79825abcba525fcdf90b791dcacef51065a7a4e7)
C         1.96308399522076   -1.02293690682381    1.22836628310973
C         2.41112256226592    0.04363065842235    0.22819285031498
O         1.26464960336947    0.90455633423865    0.15906092406470
C         0.98079693573504    1.79307484356500   -0.82572983943852
N        -0.07338231761767    2.52033210078394   -0.70443440514696
C         1.94018785545305    1.94639290025005   -2.06022389867418
C         3.39320895487139    2.39042782226090   -1.73542757268999
C         1.33112774431107    2.85114266119993   -3.15816290211689
C         1.52297546639929    1.69189473246756   -4.15281701061404
N         1.79490221535471    0.81155716900104   -3.02710020889063
C         1.95670666779819   -0.56946376717941   -3.23469287276110
N         2.01058332459432   -1.08218659105263   -4.42361822490794
C         1.93907635219633   -1.41720119062809   -1.97676395732244
C         2.85923560592907   -0.73727484514339   -1.01717333490329
N         4.11228619073885   -0.99526623424079   -1.24702355062870
O         5.07141774886435   -0.31709770714151   -0.50710793087034
H         2.84961479802872   -1.45508207567805    1.70594753644064
H         1.44946385894022   -1.75112488103498    0.59414836443031
H         1.26707018986941   -0.67891492139603    2.00128513193781
H         3.19114588792567    0.57351351450691    0.78663497870294
H        -0.51245576200569    2.35289077701539    0.21147634487168
H         3.36997652077568    3.14517514965662   -0.93860554305222
H         3.76424059100591    2.88806698790628   -2.63940193394554
H         4.05828773008744    1.57516007027541   -1.43833486012027
H         1.75715425470214    3.84860907839277   -3.28537411039423
H         0.24783555420734    2.95535231105257   -3.01354958212272
H         2.37248455828258    1.83061811685717   -4.83559962754033
H         0.63365758037533    1.32872157076250   -4.66898232360498
H         1.99672488112098   -0.40412230182870   -5.18200109996842
H         2.28619237676334   -2.37908661407468   -2.38013970559846
H         0.91790756999353   -1.49336282157090   -1.59114439734004
H         5.92963225268659   -0.69979760268078   -0.77302517121726
