32
 energy: -49.289203748354 gnorm: 0.137338420053 xtb: 6.4.1 (79825abcba525fcdf90b791dcacef51065a7a4e7)
C         2.39678900944600   -0.87067711769777    1.50063687674437
C         2.51696693275288   -0.00882621175739    0.24309082978779
O         1.36297752039744    0.84229202085343    0.17767945706845
C         0.99968014152144    1.55781501266657   -0.91588907717817
N        -0.17494027917268    2.04160303635051   -1.11868353891168
C         1.92571174706137    1.99052538110161   -2.10884343424218
C         3.33498453411604    2.43080058945692   -1.62506877763071
C         1.19019864479929    2.89639290114612   -3.12541654724057
C         1.59773683198596    1.99728098646520   -4.30673296891630
N         2.06922496766233    1.07476817961477   -3.28553478633378
C         1.95020182686604   -0.32584042376156   -3.31049921788071
N         1.85559278162402   -1.01541383563898   -4.40359962517842
C         1.72853409055218   -1.08371388694258   -2.01518230015046
C         2.83496734977987   -0.72572923916592   -1.07845424748475
N         4.04525123601773   -1.17365352547465   -1.23370621345740
O         4.87573757387157   -0.94536227143356   -0.14490110599307
H         3.35536450219371   -1.27749936597702    1.84180961341438
H         1.73016673485975   -1.73312127629407    1.41063387691908
H         2.08330124919342   -0.25116526121203    2.34805670567555
H         3.42432570385683    0.59989418730447    0.32811652558158
H        -0.80730024264213    1.73259836113926   -0.36745017200147
H         3.25319911453797    2.94742398440729   -0.65991592515152
H         3.74477032439021    3.09395904352299   -2.39628556164663
H         4.07507323987411    1.62920547221418   -1.55457526079170
H         1.44100835108906    3.95790179728521   -3.17939690589351
H         0.12424003293312    2.94567998698220   -2.86735134709141
H         2.41318100290676    2.32634621584361   -4.96542018485603
H         0.76437684761691    1.69415569036560   -4.94142490564984
H         1.74864410249576   -0.49084214466337   -5.26875529825851
H         1.78720443929509   -2.15225947300367   -2.26656488223241
H         0.72000507224332   -0.86287381647808   -1.65270803988101
H         5.74803662030264   -1.28266952381589   -0.42600876076167
