32
 energy: -49.286055793774 gnorm: 0.130147331187 xtb: 6.4.1 (79825abcba525fcdf90b791dcacef51065a7a4e7)
C         2.46607489515173   -0.62176863839914    1.48388118019185
C         2.54215588568470    0.14202377407497    0.16120032268112
O         1.27429066657791    0.78334678637974   -0.04274836876197
C         0.95384038256887    1.65228146334513   -1.03376525025782
N        -0.22342079376710    2.16995305069222   -1.06509974919911
C         1.89572613639797    2.07528657860344   -2.21775462915618
C         3.28132370172526    2.56484316310122   -1.71338996307257
C         1.21807655835468    2.99286403336396   -3.26362223537864
C         1.37880796910582    1.81865036428093   -4.24616270481828
N         1.96651968323337    0.96735833651097   -3.22338535046072
C         1.89406311074469   -0.43660338390784   -3.23503627510086
N         2.08727681261046   -1.14482390238277   -4.30294218828248
C         1.77698960727505   -1.20211081273328   -1.93056439930331
C         2.84475240045351   -0.89325217832955   -0.93342048047989
N         4.02150137830870   -1.44420701154194   -0.96859227255024
O         4.95027340863698   -1.14298284808867    0.01830566382842
H         3.33932274464792   -1.27611850792841    1.38370828950587
H         1.55456835674286   -1.22210323943219    1.55494404918605
H         2.51164844258572    0.09548396013210    2.31071952763362
H         3.37180352320589    0.85650128682787    0.20891318635335
H        -0.92238336371906    1.95503168669949   -0.34054836077599
H         3.65193721365917    3.21636757423478   -2.51543122774127
H         4.08845270943223    1.84730981208960   -1.52321240743732
H         3.09657480965874    3.26649177522674   -0.89558042393342
H         1.94073715071187    3.76896228085042   -3.52449330292584
H         0.22893148092605    3.43178737750923   -3.07860079669117
H         2.01469692689049    1.97189623340882   -5.12892139804628
H         0.43074500040726    1.51051816590036   -4.68824734292975
H         2.29752136417390   -0.47336307884926   -5.03782001426601
H         1.94889294702620   -2.24579406189990   -2.22989634158416
H         0.78584730173675   -0.93477772534736   -1.55180501602761
H         5.79667053760835   -1.24120524877923   -0.45883957968117
