32
 energy: -49.277747918460 gnorm: 0.132406527213 xtb: 6.4.1 (79825abcba525fcdf90b791dcacef51065a7a4e7)
C         2.16234564652273   -1.04318990941401    1.31933193417234
C         2.22724536905392    0.00987170025639    0.21230840775546
O         0.92623750543503    0.48196253489042   -0.16832433798848
C         0.94532353008127    1.60693160255220   -0.92590644264669
N        -0.08852634309451    2.36080366182650   -0.79271125993758
C         1.99489371944888    1.96393173046003   -2.03895013191380
C         3.40998184128032    2.45568617090641   -1.62708468952294
C         1.36005434006994    2.88426662918366   -3.10897771866725
C         1.85599451239918    1.89674858118593   -4.18082171615739
N         2.07111799643576    0.92741608471589   -3.11766929153303
C         1.77363318054593   -0.44595400036911   -3.16069940223329
N         1.45313830296574   -1.06595073300156   -4.25258673736931
C         1.95412212095343   -1.30264352373665   -1.92180412838165
C         2.92360771709665   -0.69357053245266   -0.96319325305361
N         4.17059964277258   -0.92303844927686   -1.24934364727686
O         5.22734368852699   -0.33671448447458   -0.56608875809449
H         3.14916867713094   -1.34311660255107    1.68945954333572
H         1.82837958293227   -1.99522411453660    0.89696565340291
H         1.49462522882375   -0.87118559914006    2.17065669466239
H         2.83882593186409    0.85489547745909    0.54842427109383
H        -0.71441755907888    1.93161202111172   -0.09717599077448
H         3.31076414036575    3.41159878263576   -1.09652315262128
H         3.97478164552985    2.93538037262640   -2.43539991519165
H         4.03753182691602    1.69857831774314   -1.14935665674487
H         1.92029264809225    3.82138773105547   -3.08536381729039
H         0.26848188345994    2.91801318431782   -2.99661503999473
H         2.75657672787317    2.16062584556625   -4.75215562292485
H         1.01638212896299    1.65993774373068   -4.83517585928485
H         1.18549987097000   -0.42431099705200   -4.99540295983642
H         2.20130843134131   -2.33183185567949   -2.21861280197437
H         0.96336085414557   -1.44601994049543   -1.48007566717990
H         5.98102591349289   -0.81994924525070   -0.95615361564921
