32
 energy: -49.290615704827 gnorm: 0.109811598523 xtb: 6.4.1 (79825abcba525fcdf90b791dcacef51065a7a4e7)
C         2.03256609614905   -1.05165202097563    1.23023419607241
C         2.38951968593860    0.03409500114813    0.21416856796175
O         1.13169484392783    0.65231277786624   -0.09576037081821
C         0.93640017374507    1.66360574310253   -0.97836836059064
N        -0.10012950978064    2.40626721931150   -0.80816336455591
C         1.99552384586206    1.87474319619874   -2.11924125645792
C         3.45772074450722    2.18945996360338   -1.69868976892577
C         1.40842754284734    2.94862901383164   -3.06638622665480
C         1.40970695409490    1.89396720644320   -4.18785175716373
N         1.91907104474143    0.90088899376060   -3.25483484841228
C         1.85805349987209   -0.50366054316049   -3.25824754299308
N         1.66030258821291   -1.27799140260407   -4.27836378925499
C         1.97747223555990   -1.21510927754058   -1.92373094099974
C         3.01570664664726   -0.65222187503579   -1.00992893107220
N         4.29203442638032   -0.76378554788779   -1.22917167675849
O         5.15856990734111   -0.28967647146021   -0.25364214775133
H         2.92646256885512   -1.66139583571257    1.40324211912353
H         1.27530792548112   -1.69657556690466    0.77533924192388
H         1.66953936879644   -0.64592288959896    2.18091045929071
H         3.03096226868584    0.77447700054169    0.70555003748205
H        -0.64169961253376    2.07643703816413    0.00277958218670
H         3.52575706164056    2.99108451703462   -0.95177762640606
H         4.02223115532890    2.66686168404796   -2.50856287328470
H         4.02270178527718    1.40322782448452   -1.19086026409569
H         2.06076144457028    3.82345211780536   -3.10840472826109
H         0.35988180943173    3.22548877058991   -2.89552034428835
H         2.07295126988534    2.01688133456680   -5.05508936245115
H         0.41670382961573    1.67547015496439   -4.58207440978673
H         1.65272598626697   -0.85402588428839   -5.20319007015248
H         2.03302470794482   -2.28971947542203   -2.14856850374811
H         0.97291627483529   -1.07872914991838   -1.51195854393856
H         6.06670056355275   -0.56653560286140   -0.48244567677156
