32
 energy: -49.288985774125 gnorm: 0.120396328022 xtb: 6.4.1 (79825abcba525fcdf90b791dcacef51065a7a4e7)
C         2.01699491995531   -1.02619037407053    1.34212652635428
C         2.38455149473039   -0.00864411163143    0.26131499327571
O         1.16129997940384    0.62470681263963   -0.14228731268571
C         0.93665863421108    1.61331810958061   -1.04341676295742
N        -0.21713179639413    2.17865474191757   -1.10722688216697
C         2.00912048335707    1.97972505673997   -2.13129748975282
C         3.38253638304726    2.48102735849668   -1.60560295578459
C         1.35664354604182    3.00959194252232   -3.08452592397383
C         1.31620768071637    1.88833542422396   -4.13863543732699
N         2.08100337446141    1.00799138218903   -3.26900412492487
C         1.91820624587888   -0.38839745498042   -3.25954126468508
N         1.61438143972353   -1.09932713612852   -4.29954143920442
C         2.09302488873439   -1.18083631710394   -1.97781047619656
C         3.05212396524908   -0.61469452773090   -0.98311480608318
N         4.28876287722289   -0.98659386876080   -1.13124149347922
O         5.27320765582236   -0.70069702756054   -0.19505108131121
H         2.81298537893315   -1.68828978448472    1.70100494134761
H         1.08748685612949   -1.54557045970026    1.09201691550148
H         1.87952892220823   -0.44970468803596    2.26351528349313
H         3.04718257459550    0.71718958277363    0.74624317015571
H        -0.82684407912090    1.85687195398099   -0.34275231973817
H         3.43922751288335    2.88667857855893   -0.58710317000200
H         3.70793628736432    3.29552399466835   -2.26377389875255
H         4.23556546165018    1.80215302788537   -1.68761755608635
H         1.98810063943624    3.86214968778133   -3.34342313287608
H         0.34423196706664    3.28018351370780   -2.75726818663867
H         1.86671240098765    2.11449413882736   -5.06216062249118
H         0.36838159251620    1.37229801599496   -4.29528402747958
H         1.45133366496831   -0.61081735034409   -5.17697031634394
H         2.36222850391344   -2.14191498424817   -2.43855151513936
H         1.09532732298987   -1.27044654416673   -1.53751705316172
H         6.09064764641411   -1.00498604670515   -0.63425875125875
