32
 energy: -49.285476948672 gnorm: 0.135900711255 xtb: 6.4.1 (79825abcba525fcdf90b791dcacef51065a7a4e7)
C         2.15372737093786   -0.83227422847117    1.48023062941050
C         2.37885913121534    0.01732378572123    0.22877119357930
O         1.08880124078703    0.59460832864757   -0.02195912910826
C         0.96320141873856    1.58070380574109   -0.94483003806724
N        -0.12478595321471    2.26693195780539   -0.92797751048988
C         1.93702749606060    2.01492412026647   -2.09853209358263
C         3.42421431280817    2.30270470863217   -1.75300684829640
C         1.44833159597625    2.99878225810509   -3.18857607011959
C         1.64959402018669    1.87075506488594   -4.21670358618740
N         1.99509824822559    0.94702015185229   -3.14734989369272
C         1.86466567397910   -0.45253595145654   -3.12043772382132
N         1.64651107099580   -1.07490845128692   -4.23596088479062
C         1.87290804460833   -1.35520637866486   -1.90122778964236
C         2.89575138799552   -0.79891064962500   -0.96627666687661
N         4.14105182698047   -1.05445257243950   -1.23729619569345
O         5.09179596661406   -0.38777788792038   -0.47640759365030
H         3.08601004103482   -0.87994794561087    2.05411772814778
H         1.64291708014096   -1.79325858671911    1.37124603569774
H         1.45721561774044   -0.26273859496726    2.10528297238886
H         3.01976302677522    0.85436186533020    0.52823620341578
H        -0.84965523623462    1.90445132778891   -0.29324378496011
H         3.88952809835444    1.33412678624178   -1.52839938554783
H         3.56092841883197    3.00457213659893   -0.92164037017215
H         3.90213054829280    2.75413489636549   -2.62654118091902
H         2.20046496717191    3.78674442981837   -3.26623908457516
H         0.42842097505732    3.37672618586384   -3.03946088876813
H         2.37781567604129    2.14535623339175   -4.99219658042040
H         0.77212775274336    1.43139967484142   -4.69233733949199
H         1.59729775303528   -0.63920212404492   -5.15402725602354
H         2.02962167824445   -2.36792776845811   -2.29904848823844
H         0.92530585135177   -1.39804208632930   -1.35578860741256
H         5.94095505048203   -0.62769018082223   -0.89482636121255
