32
 energy: -49.286488407034 gnorm: 0.116402504051 xtb: 6.4.1 (79825abcba525fcdf90b791dcacef51065a7a4e7)
C         2.15193508028761   -0.44670626549237    1.46015258078213
C         2.37706487674589    0.34436724232763    0.17090043048890
O         1.14504241159995    1.01394066219289   -0.13596205425952
C         0.97927390215157    1.96339145319928   -1.09038038103873
N        -0.01814388719991    2.77236292711099   -1.01533032072777
C         1.99391837379128    1.90506381662229   -2.28829834588649
C         3.42640187970271    2.29988971453608   -1.83438921570730
C         1.48832397870064    2.66838994111458   -3.53597776817011
C         1.70803636572256    1.39776969243577   -4.37695859742116
N         1.85363105559990    0.67078648181915   -3.12536989375266
C         1.78663704331136   -0.72972686036211   -3.02256725557935
N         1.63710418608975   -1.51083669986979   -4.04571837551734
C         1.80397660376248   -1.38452022219015   -1.65424722514613
C         2.85354782798694   -0.73472747690013   -0.81402304030097
N         4.10100566577649   -1.09378377265301   -0.88076107052965
O         5.09756224515113   -0.42843308439748   -0.17968727681957
H         3.03593008682366   -0.63437335422245    2.07991387055176
H         1.84435108300880   -1.44120235118682    1.12449597396005
H         1.49363382227606    0.04531791342830    2.18454305034267
H         3.15200350633925    1.09416356384894    0.36672035522037
H        -0.73523237133872    2.58590753696690   -0.30067440496858
H         3.99420166972151    1.48261468449337   -1.37095255334487
H         3.41467502268411    3.18099901227626   -1.18171185135081
H         3.99945246771877    2.56306886243547   -2.72747663152977
H         1.91984831680790    3.57003717851823   -3.97579538282288
H         0.42215771120110    2.85155280078559   -3.34880006927938
H         2.55074777754916    1.39725627990306   -5.08189773188779
H         0.84798693307577    1.07403180500655   -4.96408416128288
H         1.59650518227882   -1.17098879962393   -5.00382220083573
H         1.82290662998822   -2.45547023857419   -1.90149771739610
H         0.79761889053669   -1.17555754841507   -1.27892405610235
H         5.92869983406053   -0.80791764133301   -0.52451346828661
