32
 energy: -49.291753494569 gnorm: 0.123417944960 xtb: 6.4.1 (79825abcba525fcdf90b791dcacef51065a7a4e7)
C         0.93103527444380   -1.41001313723631    0.26873000027095
C         1.68613990012846   -0.09290543417272    0.08516500649756
O         1.09709187493338    0.91918534183855   -0.74493570452522
C         1.97432324427026    1.86444493733565   -1.16541134091433
N         2.43249212664343    2.85157488582264   -0.47943368846791
C         2.24728311848265    1.85307285540506   -2.71243317223710
C         3.71917544740132    2.27310017921738   -2.97896646244673
C         1.07950447469550    2.52053428430393   -3.47779887511403
C         0.69936470050248    1.08789726072445   -3.89378326210593
N         1.92689625953774    0.53332198062872   -3.34442980568992
C         1.94846721823378   -0.78321217719823   -2.85171620172108
N         1.16809449726834   -1.77032880045434   -3.16147423067367
C         3.11065351321494   -1.09956272111847   -1.92943640271194
C         3.01972255153183   -0.39349471776921   -0.61680296295550
N         4.15041307191350   -0.02572171851613   -0.09162832581920
O         4.11148638422565    0.79690709456407    1.02599753441029
H        -0.06090221039467   -1.25842447705213    0.70901520760655
H         1.49787724337715   -1.92266576917862    1.05114497706344
H         0.86816760502690   -1.90589050937718   -0.70612546361804
H         1.90037660770309    0.38050088873621    1.05007895392732
H         2.21656617212675    2.75167060767259    0.52211995649396
H         4.44631082404476    1.45200623081870   -3.02573698840575
H         4.03618921074874    2.96654283428691   -2.19085580241833
H         3.78511826912177    2.76248783069609   -3.95436722020323
H         1.32224419044782    3.27144333725015   -4.23267207647076
H         0.26638120573869    2.91809042664395   -2.85645011453639
H         0.41805972302501    0.88165282307906   -4.93562428159300
H        -0.15373840289340    0.78496853128514   -3.28578905631673
H         0.42505601443359   -1.46716946414451   -3.78685095561919
H         4.06038818413837   -0.71930484023073   -2.33172122617752
H         3.27580851130758   -2.17486417934921   -1.81222163282295
H         5.00971382510091    0.68277253104576    1.39187195111132
