32
 energy: -49.285556067381 gnorm: 0.137839976033 xtb: 6.4.1 (79825abcba525fcdf90b791dcacef51065a7a4e7)
C         0.92592158724485   -1.01382131664879    0.39364311332731
C         1.89903508462583    0.10886652489697    0.03132571224407
O         1.16855391019165    0.98452796996538   -0.84044646777163
C         1.94912900582164    1.97811338512786   -1.33374235422084
N         2.69377663435105    2.83344822973185   -0.72644360875790
C         1.97997035948211    2.02086045547423   -2.90381700426763
C         3.24086385948776    2.79189606926733   -3.38296377674819
C         0.69035951845421    2.31879990976069   -3.70577230923626
C         0.74972713480876    0.87842612176894   -4.24595461997627
N         1.93666883116714    0.62445628766167   -3.44417821245920
C         2.06236265861885   -0.49490635896949   -2.60291575685784
N         1.23427114686101   -1.49057048304492   -2.55550008949599
C         3.43077733875673   -0.67000829185024   -1.97193616868028
C         3.23058111365973   -0.43356682908848   -0.51117476844921
N         4.18899335199149   -0.76580227438988    0.30159331834162
O         4.09273257130979   -0.68257615870025    1.68402894571053
H         0.04879830717746   -0.53508504102021    0.84335022207604
H         1.48975162732270   -1.57400266779728    1.14503400274534
H         0.69192075664252   -1.68502600799143   -0.43997415494102
H         2.18667584673842    0.56057621186625    0.98751134555444
H         2.70096000410747    2.66724415274078    0.28944968416326
H         4.14288084495193    2.28703954919698   -3.01337770325803
H         3.14487414448977    3.80329717894359   -2.97025004142801
H         3.17566296562250    2.88799315279689   -4.47005602636325
H         0.93727136608354    3.10473548555153   -4.42268257916539
H        -0.18561111611503    2.51292735664094   -3.07309182495463
H         0.90033084218489    0.79477127200570   -5.33104556330207
H        -0.10906624331683    0.21811808357625   -4.12075521354447
H         0.40693128461896   -1.35234703821435   -3.13126987658165
H         4.01827717377918    0.16926245063165   -2.37055081507094
H         4.01329726884033   -1.59617543627495   -1.98511325657840
H         4.99537300152809   -0.84577296040717    2.01915634944196
