32
 energy: -49.289324374943 gnorm: 0.118063745966 xtb: 6.4.1 (79825abcba525fcdf90b791dcacef51065a7a4e7)
C         1.97968717616905   -0.73638766423247    1.42929551111118
C         2.30249432989374    0.09061599197447    0.18409982522544
O         1.08163345686926    0.67467588958440   -0.29417336520006
C         1.01200647724380    1.75075185210508   -1.11701170660619
N         0.00087990206842    2.54165626981591   -1.20069476977550
C         2.11610532322109    1.93234115868611   -2.21969209252262
C         3.59942115592332    2.02368631034215   -1.76652524762207
C         1.63494054575591    2.90879760754361   -3.31969648266968
C         1.35300301085644    1.66548504762716   -4.18264677329817
N         1.92580656507758    0.79103204352303   -3.17101210012248
C         1.76000303862169   -0.60370630439000   -3.11011608697206
N         1.13727113267208   -1.22792295437759   -4.05979467126874
C         2.22235518906929   -1.42796576293024   -1.92344784980818
C         3.04000429833544   -0.69186361032849   -0.91378921142980
N         4.33225134239044   -0.77624823784848   -1.02560708615261
O         4.99083812684100   -0.07943761380158   -0.02159542263865
H         2.88622043046685   -1.28844236530262    1.70169820429478
H         1.19582885559411   -1.44338378913378    1.14290705892840
H         1.72322825660438   -0.04943639679134    2.24324677928043
H         3.06807021053036    0.78094353344125    0.55613650399026
H        -0.82056013778595    2.28812902145960   -0.63441323222258
H         4.09922139336060    1.18952508547749   -2.27592037662980
H         3.82989358071979    2.07648897909237   -0.69574366897145
H         3.88233720305066    3.01530308486669   -2.12971949464819
H         2.42071605731299    3.60135751261748   -3.62878895448995
H         0.73812137363179    3.41811651577037   -2.94339307733626
H         1.78107465114719    1.64136692319090   -5.19421731208827
H         0.27954776601628    1.49837725871452   -4.27739114225316
H         0.93163468092019   -0.66962664484031   -4.88509867511777
H         2.85127788728717   -2.26198768653019   -2.26592229892131
H         1.30301883962463   -1.76392478539017   -1.43432524328530
H         5.86359398081414   -0.51276150382656    0.04345032006853
