32
 energy: -49.296522723365 gnorm: 0.106437834695 xtb: 6.4.1 (79825abcba525fcdf90b791dcacef51065a7a4e7)
C         0.87080447279798   -0.78576714040352    0.53895302832524
C         1.96610599829505    0.16733309082269    0.05877981003900
O         1.37247494594045    1.08287163445745   -0.87383149000401
C         2.07694667468047    2.12141530749296   -1.38861005086005
N         2.81005187093932    3.07690631054478   -0.93638961695704
C         1.96049244529099    2.06419971502466   -2.95420188316296
C         3.02474285022281    3.00263930968024   -3.58715700774459
C         0.53754346128091    2.23803518485436   -3.53729177641881
C         0.62828776463024    0.78988565138317   -4.05171038083903
N         1.90880072137284    0.62911550584210   -3.38043085309997
C         2.38403800140798   -0.55615509805250   -2.79240253434280
N         1.86899528130881   -1.71317150388866   -3.06694741554321
C         3.57772041086249   -0.66017927168328   -1.86199620353134
C         3.19845690223623   -0.61702041487402   -0.41835376036173
N         3.93781617854629   -1.21222758075900    0.46967929990878
O         3.71991080827694   -0.85835686068791    1.79429765171792
H         0.01533956945760   -0.22308508454459    0.92925914273329
H         1.26368469356309   -1.40204983799096    1.35267073218940
H         0.55769374829622   -1.39989953504415   -0.31251215780709
H         2.28772083975828    0.70318006875292    0.95905851436617
H         2.90663713930450    3.17777662300988    0.08351775623802
H         4.04629227310307    2.64788777789884   -3.39822117849972
H         2.94482258056179    4.00488334371527   -3.14943734438470
H         2.90976116952633    3.16327499200398   -4.66243871767554
H         0.48685234126349    3.07130959962360   -4.24135476747143
H        -0.27628359302670    2.32046327163970   -2.80504471171111
H         0.66267163905404    0.65961849172103   -5.14210030413810
H        -0.16219226864025    0.16473466740536   -3.63513477597697
H         1.00195920137554   -1.67135323072213   -3.59761443502432
H         4.32007633920567    0.12386632237322   -2.06840660296015
H         4.14399928991486   -1.57638774472825   -2.05481468731877
H         4.27282847602686   -1.40297116691660    2.38707132838455
