32
 energy: -49.294731179807 gnorm: 0.117851674998 xtb: 6.4.1 (79825abcba525fcdf90b791dcacef51065a7a4e7)
C         2.29817010517582   -0.73624905826732    1.45181662973817
C         2.52223408209206    0.17604516311564    0.24509943823766
O         1.32159888069326    0.93941497904165    0.05506234423765
C         0.89879602295824    1.59880815507163   -1.05231685368449
N        -0.29647556075015    2.07100167117538   -0.99514423279984
C         1.93081905276124    2.00445902980024   -2.16510108512436
C         3.39992923562940    2.37259077666229   -1.81851162241580
C         1.20243498896657    2.96334619355874   -3.13720624991002
C         1.52771775545879    1.95896377550059   -4.25765490088725
N         2.03004223850080    1.00745803485650   -3.27863313679605
C         1.88000724427735   -0.39030306632772   -3.29436820372098
N         1.65678395781960   -1.00674805428204   -4.41217757874724
C         1.96420592925856   -1.18947969593574   -2.00767400918623
C         2.90310278823401   -0.71403950325567   -0.94831746230561
N         4.07913749601031   -1.26446753318606   -1.00745933143910
O         5.04407605753429   -1.01115297747503   -0.04203387306819
H         3.21025415286647   -1.08951339680977    1.94585828051231
H         1.73872220482485   -1.62484281627661    1.14568771821784
H         1.68652080897207   -0.22022505411963    2.20001062235730
H         3.29522510898102    0.89932061214634    0.52869654540395
H        -0.73417540392379    1.63946471981992   -0.16936623860833
H         3.98293982645941    1.46116413896956   -1.63274630877165
H         3.47333091388507    2.97549027032502   -0.90549286761117
H         3.87808207120061    2.85218729099234   -2.67677289740612
H         1.70668510987159    3.92659005382973   -3.23974215131461
H         0.11851340418823    3.04540348295351   -2.98333869456193
H         2.29844520330612    2.28095965018881   -4.97137741519380
H         0.63706721314062    1.68433453681957   -4.82380687676067
H         1.57176389018988   -0.37094323503169   -5.20188109199485
H         2.39603831253326   -2.17720258611169   -2.22296303343767
H         1.00530812363861   -1.31440954673021   -1.49562300566279
H         5.81826648258780   -1.35479917718069   -0.52807893124388
