32
 energy: -49.280994749872 gnorm: 0.130755772286 xtb: 6.4.1 (79825abcba525fcdf90b791dcacef51065a7a4e7)
C         2.15820629161588   -0.81627756728693    1.32748395660247
C         2.56625016532174    0.16623444552394    0.22892937347983
O         1.38261307626869    0.97048006226981    0.11683691144059
C         1.02940414661553    1.65850556613467   -0.99748560866105
N        -0.18528812965844    2.05724583897261   -1.14044881315258
C         1.93624763325024    2.08206203115885   -2.20833149742082
C         3.33898776581857    2.55930698821286   -1.74090518753675
C         1.32468991472922    2.91719649661652   -3.35878530532518
C         1.73543666746314    1.76206973260632   -4.28989612933491
N         1.94596518367655    0.90437466658566   -3.13394907309543
C         1.77134476528337   -0.48980742419855   -3.08642862254199
N         1.65675661660264   -1.30012516348600   -4.09120998016554
C         1.71713049013174   -1.18430246530473   -1.73880399071178
C         2.90442660326201   -0.79568364028858   -0.92081231056311
N         4.11478148931745   -1.20928819481127   -1.15211029988561
O         5.08099934035900   -0.59439644668401   -0.36747521079046
H         3.04631280293265   -1.42568837188800    1.52911595412806
H         1.42371833135661   -1.47717233794409    0.85839838117803
H         1.81977707766724   -0.33384457658908    2.25101737156387
H         3.37585948107256    0.82560491603302    0.56184554681646
H        -0.74503230832670    1.89449028408234   -0.29197272479510
H         3.32320877428705    3.64083608671486   -1.92840041105132
H         3.98071493955461    1.86513952038676   -2.29659991241511
H         3.49598407705467    2.47724869077535   -0.66207528403173
H         1.89038203769522    3.80944187028864   -3.63539178463686
H         0.24989714427633    3.04147703408067   -3.17258789742896
H         2.63775961312569    1.96784811257019   -4.88198609730833
H         1.01174854043115    1.40768027671069   -5.02466907254813
H         1.60269951518688   -0.85912178659537   -5.00647041793014
H         1.69290434598379   -2.25354321101510   -1.99289533178465
H         0.85543343434467   -0.91323368510218   -1.12131827023052
H         5.94623440387511   -1.04717042121629   -0.37568100527093
