32
 energy: -49.288188509111 gnorm: 0.127951042857 xtb: 6.4.1 (79825abcba525fcdf90b791dcacef51065a7a4e7)
C         2.30335732686828   -0.88647743951031    1.37419798388481
C         2.52642904900256    0.19495694438770    0.31618547074589
O         1.30789535954604    0.92367953847666    0.10520797591342
C         0.98016143144724    1.46666654889221   -1.09379406281722
N        -0.23896814575382    1.58529991321840   -1.48693371837709
C         2.07263176960573    1.92528499641290   -2.12534174876197
C         3.41589222009454    2.41901926764640   -1.52052126910639
C         1.38589173431331    2.82573340391489   -3.18012949483694
C         1.91048813070314    1.86846053751693   -4.26568252680697
N         2.27588592790004    0.92432176618876   -3.22104711564253
C         1.62791016164222   -0.32331477912528   -3.21607701313166
N         0.94590664508568   -0.95079342990708   -4.12187645139992
C         1.82100917435317   -1.08912843663575   -1.92085621246429
C         2.85228484157116   -0.59927494558833   -0.95840046986431
N         4.09767253592635   -0.89958740243139   -1.17828303052782
O         5.06012571842181   -0.45769381069184   -0.28065563708251
H         3.12762180271206   -1.55577642137040    1.64511697913515
H         1.46226608098817   -1.52971456623056    1.10014097286883
H         2.11418552049725   -0.33114507719547    2.29940600509796
H         3.43082542170579    0.72226336140147    0.64035358805219
H        -0.90826365449931    1.24158081442393   -0.78435611536487
H         3.43852398360354    2.76350943464903   -0.47844500531175
H         3.87902197924161    3.18053355907158   -2.15933709946478
H         4.08089899058681    1.55171764668041   -1.49207371396091
H         1.86623255355759    3.80584822450406   -3.14451808415586
H         0.29980292136970    2.81259174293088   -3.02033895076096
H         2.82983606400307    2.14623332814677   -4.79929627783527
H         1.14186134648036    1.54097514202405   -4.96652049677558
H         0.81770074101670   -0.45428840716049   -5.00059929092174
H         2.00389436318151   -2.13210729253679   -2.21610728514173
H         0.87277940403885   -1.15849993415345   -1.37925062425585
H         5.87163133491537   -0.89600092778616   -0.60166783011573
