32
 energy: -49.290308127986 gnorm: 0.126471629197 xtb: 6.4.1 (79825abcba525fcdf90b791dcacef51065a7a4e7)
C         2.31248847350224   -0.82827529707498    1.40840981033335
C         2.51107857723621    0.09847294360070    0.20826336949417
O         1.27850187381166    0.80101128884372   -0.00983530080491
C         0.88325961196729    1.66379995406616   -0.97897388991990
N        -0.27960647668389    2.21111406118371   -1.03464556204898
C         1.88086597480452    2.04706580443719   -2.13040856536966
C         3.35696747890026    2.40321800464363   -1.80145574049554
C         1.27047999758833    3.03679822018658   -3.15161134061132
C         1.67025153885176    1.93838602478342   -4.15344539363708
N         1.89639217791873    0.93064615432517   -3.12899555964546
C         1.78371375041887   -0.46582128585337   -3.24594204743625
N         1.56246856884676   -1.07071177159872   -4.37043702024667
C         1.94444041395886   -1.25568268597538   -1.96078034120824
C         2.96138195603157   -0.74991195402938   -0.99133055037266
N         4.18311247349817   -1.18462613975311   -1.08035054367955
O         5.10082449310466   -0.72289285150869   -0.14657967291082
H         3.20183625155679   -1.38948664019350    1.71642363852683
H         1.56906934815989   -1.59016211971448    1.15710878110790
H         1.90328389860564   -0.26036966002873    2.25115810744012
H         3.29450342228963    0.77748746510945    0.56358664256726
H        -0.97287897591322    1.79234571942536   -0.39925520576130
H         3.87797698844433    1.46583493257973   -1.56699744394619
H         3.53207973492746    3.14701524340612   -1.01495703057370
H         3.86002292315947    2.71619403187593   -2.72027922802192
H         1.82978239527730    3.96396071891151   -3.29363620683466
H         0.17832215958246    3.14778537708518   -3.13866005012396
H         2.64638901964012    2.15471175810757   -4.60892401629120
H         0.88864516893070    1.76548974044377   -4.89398980920340
H         1.40541576243781   -0.52791512919758   -5.21649496060945
H         2.25986667533771   -2.28036098522213   -2.20360897607227
H         0.98853141904230   -1.31588988039906   -1.43172287095186
H         5.79798269718232   -1.36162634336366   -0.39090177479068
