32
 energy: -49.290284580989 gnorm: 0.129628831972 xtb: 6.4.1 (79825abcba525fcdf90b791dcacef51065a7a4e7)
C         2.12752578990681   -0.99847695487912    1.29041707505798
C         2.41142103796508    0.04002290819366    0.20433542717618
O         1.13326474949367    0.68552837838797    0.10427701355181
C         0.90349165923335    1.58555389051895   -0.88416050135711
N        -0.16102537643299    2.30687035987940   -0.92178537532773
C         1.88537763220442    1.93506978238679   -2.05959723290723
C         3.31794890981043    2.40479242398788   -1.68405741425413
C         1.31486159879295    2.89803929432597   -3.12833367381190
C         1.64735130018577    1.90682894506235   -4.25835612671801
N         1.94685226241482    0.96016495884654   -3.19519897008375
C         1.87697025685020   -0.44396671697670   -3.20019310265011
N         1.92235009748016   -1.21778777286639   -4.23868841295007
C         1.81080482090616   -1.13473287705057   -1.85118644802117
C         2.97302499985635   -0.64937583275040   -1.04901449047461
N         4.19780289854147   -0.98366731719145   -1.32775225446575
O         5.24886773711055   -0.54111103252137   -0.53609092702569
H         2.97016672460771   -1.64489521468031    1.56036123923542
H         1.27129980980242   -1.62204910800849    1.01778073036227
H         1.89935170573928   -0.41872951758462    2.19153825968448
H         3.12667783951960    0.73493085993588    0.65884669036279
H        -0.81084987511614    2.20564211464705   -0.12982859201668
H         3.22373056089791    3.23846894361920   -0.97609203125095
H         3.89073430542443    2.74330209245552   -2.55572647378983
H         3.90947674109022    1.60549839158751   -1.22965754459862
H         1.77676073798919    3.88735710194932   -3.15113708066112
H         0.24365520900835    2.96742159934007   -2.89812159895811
H         2.41515569441575    2.21075853452307   -4.98306653799221
H         0.72106439624743    1.59343507938306   -4.74104083642956
H         1.90583744464744   -0.70774433651660   -5.11885365057067
H         1.92151290401086   -2.22208658898359   -1.96879051468279
H         0.87161106855707   -1.01800170285345   -1.30202559287259
H         5.92913358876223   -1.20702408320191   -0.75403932344001
