32
 energy: -49.289716692988 gnorm: 0.138306915483 xtb: 6.4.1 (79825abcba525fcdf90b791dcacef51065a7a4e7)
C         2.21376728702508   -0.86883714102985    1.32844753003298
C         2.46531047360168    0.03938187154846    0.12407380541718
O         1.16290208829462    0.58824043730273   -0.12664350711086
C         0.92441410279476    1.65999689095251   -0.92308051992745
N        -0.18263737709769    2.31467182948057   -0.89574282322769
C         1.94552794395832    2.02237649873362   -2.06058678355020
C         3.39437134125972    2.48265851955476   -1.73977025587206
C         1.24186010682874    3.01319467356819   -3.01877639121989
C         1.32809021604766    1.95963077310483   -4.13795715242045
N         1.84231790459729    1.01185671024414   -3.16149881318418
C         1.98748561532190   -0.37811589795175   -3.31445852527449
N         2.01303697182679   -0.89752097152255   -4.50142792704168
C         2.07927466582159   -1.29285565181280   -2.10773542668031
C         3.00397506953306   -0.80454335957725   -1.04176765107304
N         4.18113380242993   -1.35464766754272   -1.07653852324541
O         4.92439419165014   -0.91136458536921    0.00899596641571
H         3.14364842148647   -1.44753381156679    1.36310882739850
H         1.38564031201906   -1.58055165158450    1.26548801262460
H         2.16040483340905   -0.26845674550113    2.24326211245053
H         3.15935509530877    0.84600875893934    0.38622827348126
H        -0.71485666436280    1.98382132149412   -0.07904510557811
H         3.15423710627691    3.21118673178401   -0.95447360812774
H         3.83059234376460    3.04705890860486   -2.57262215924741
H         3.97616072395347    1.60331666145569   -1.45074711203274
H         1.62631680261909    4.02612503753938   -3.15583717073731
H         0.20661649827702    3.23488920233105   -2.72823063430236
H         2.04669038945606    2.11446878399523   -4.95449922314216
H         0.38733295173980    1.58351988774204   -4.54134783652745
H         1.99726354139173   -0.24907998793809   -5.28525399605450
H         2.44522472332580   -2.26414767073820   -2.46980924983548
H         1.05975330669966   -1.40319657286486   -1.72604210065875
H         5.81603411858069   -1.11996480018056   -0.33036743062835
