32
 energy: -49.291754835649 gnorm: 0.119693657160 xtb: 6.4.1 (79825abcba525fcdf90b791dcacef51065a7a4e7)
C         2.05789147818182   -0.88487713333370    1.39498459588692
C         2.46142974165094    0.12396305898290    0.31885721314354
O         1.29051054952129    0.90028420296851    0.02449995789388
C         0.99111598474994    1.72478500171345   -1.01010703480831
N        -0.03537014904820    2.49655876287067   -0.93526673217941
C         1.91688539358463    1.96887061687610   -2.25561341531623
C         3.36215000208451    2.35804321271989   -1.83885822770543
C         1.20116728439274    2.90785771968541   -3.25613688143109
C         1.32865904188969    1.79989433449958   -4.31734425519179
N         1.93534709064223    0.92299964224103   -3.32781811348042
C         1.99488695931148   -0.48105826183914   -3.28818737698317
N         1.70797265684318   -1.24544515166266   -4.29452913123081
C         2.07431216062264   -1.18507200766901   -1.94676613036880
C         2.99026253295079   -0.67046344695438   -0.88562525753198
N         4.19350194714829   -1.16164290912491   -0.90762691619029
O         5.20108150538971   -0.71527390222166   -0.06331704753091
H         2.93632380558688   -1.44484155479142    1.73493555403067
H         1.44377426074934   -1.65187205897011    0.91449051471463
H         1.52732888107745   -0.32332919742091    2.17174526415307
H         3.20358076710801    0.86791440757064    0.63001324670921
H        -0.71202989558985    2.29750056590077   -0.18545208547834
H         3.98472327607831    2.52842526752315   -2.72682280676932
H         3.85906632269144    1.59343891818056   -1.22981529146576
H         3.23496024451986    3.27733435660044   -1.26094652759929
H         1.87108441583951    3.73974206671352   -3.48373302921570
H         0.20186896384611    3.19602635464544   -2.90448885772252
H         2.04190146776816    1.95920821463475   -5.13771386944028
H         0.38882271784495    1.46973532611206   -4.76109010598828
H         1.30431114690770   -0.82229485350355   -5.12706082738671
H         2.53905025707429   -2.15895216050970   -2.15653038226317
H         1.04054931926194   -1.25101148006959   -1.59423941452414
H         5.99796235062103   -1.26201410047852   -0.20388516440658
