32
 energy: -49.288634593229 gnorm: 0.118218096854 xtb: 6.4.1 (79825abcba525fcdf90b791dcacef51065a7a4e7)
C         1.65246275808417   -0.94026549829517    1.04460197240301
C         2.22848974630663    0.13826050950180    0.12611062962689
O         1.08510593490499    0.81355471800218   -0.41888812795705
C         1.14122874402658    1.74617549553624   -1.40220853337531
N         0.29029861341264    2.71085324782767   -1.41718664242839
C         2.25556326311482    1.82270394657530   -2.50688718430658
C         3.66349364042885    2.24703802977690   -2.00528716303377
C         1.73236780325261    2.68512000360036   -3.68055725601817
C         1.04302775971743    1.38040907502986   -4.11934854856367
N         1.94559523245194    0.58889249928689   -3.29773418818604
C         1.68162300637651   -0.71825299660025   -2.85255612699595
N         0.72027677442959   -1.47484636813010   -3.28000289455080
C         2.74274425269929   -1.33948963983266   -1.96405097935455
C         3.24367550226529   -0.50493874462906   -0.83162011396597
N         4.51088085332362   -0.56357228368599   -0.54828443146676
O         4.89495348758718    0.17739908012617    0.56111660498257
H         0.83047665576721   -0.44901205658075    1.57731114632426
H         2.38013451185954   -1.37419054076961    1.73633790602173
H         1.14885503892876   -1.69837849411709    0.43482017945928
H         2.70615090372354    0.86418611607118    0.79389925743250
H        -0.49442084594497    2.51709574545296   -0.77970096643445
H         4.48214670491138    1.75679172151569   -2.54803417902924
H         3.79869578756622    2.23570729688280   -0.91713697375759
H         3.67532604988440    3.32152335218308   -2.20677328247912
H         2.46173651372905    3.10138502878814   -4.37867274704567
H         1.12096333363233    3.55818175047303   -3.41741778518652
H         1.17635304443394    1.11397664017107   -5.17686455405226
H        -0.01822023877959    1.21165301544801   -3.93365592296251
H         0.13646293991911   -0.91819293049877   -3.90000787677554
H         3.63369423613465   -1.59274595512948   -2.55607668711753
H         2.22785178800712   -2.18331825111836   -1.49487325666666
H         5.79363940326433   -0.10609973475731    0.81742768247291
