32
 energy: -49.285968855235 gnorm: 0.115772794321 xtb: 6.4.1 (79825abcba525fcdf90b791dcacef51065a7a4e7)
C         2.00967626947245   -0.67343304596184    1.35554693455216
C         2.35989491015248    0.31033906855826    0.23832217689077
O         1.13884960490311    0.95292612759781   -0.15728208769353
C         1.05648825980289    1.90597077226006   -1.11893318950837
N         0.28789912942630    2.90473340265378   -0.86075970043027
C         1.97950714008461    1.86868733106826   -2.38958618074468
C         3.45347064402593    2.21865508170464   -2.04479036149632
C         1.40275408964998    2.69879768121600   -3.56145183751590
C         1.34848608582645    1.39982953458597   -4.38591216897404
N         1.93231259393766    0.66228383747487   -3.27625022199951
C         1.87845270725627   -0.73188670680185   -3.10338669050464
N         1.60448137792271   -1.49358040045037   -4.11536163910645
C         1.99104966116916   -1.34830479445814   -1.72182765988029
C         2.94321625405714   -0.66308615349807   -0.79788977180616
N         4.20088542023304   -0.98419518269251   -0.72945220435784
O         5.00507969308581   -0.30253588762715    0.17383800088333
H         2.75589957931717   -1.41267889797776    1.66769514626859
H         1.14127133405617   -1.13663569139628    0.87846002641936
H         1.63161924655423   -0.17411541845529    2.25440436817621
H         3.12412336129494    1.08173979201155    0.38653028226900
H        -0.12307122519809    2.84518834935399    0.08119164660728
H         4.01945513877205    1.29483969370391   -1.86777255174149
H         3.37872044438422    2.65476594186159   -1.04144665655182
H         3.93893753617371    2.87174346385077   -2.77489503156337
H         2.05502979445145    3.48988994807446   -3.93739060935178
H         0.40829399800615    3.14471314912034   -3.42915238326753
H         1.98465025857130    1.35588885453161   -5.28060001172077
H         0.40101828297903    1.01731480696731   -4.76695667627722
H         1.52982025997453   -0.88305872714669   -4.92579166727387
H         2.16143912472480   -2.42213378698953   -1.88395048333581
H         0.98573383098253   -1.27504095219294   -1.29607983484601
H         5.94329158087041   -0.53675087356992    0.03743742875348
