32
 energy: -49.289088127163 gnorm: 0.127597009154 xtb: 6.4.1 (79825abcba525fcdf90b791dcacef51065a7a4e7)
C         1.83200975434555   -1.30640224975186    1.08443077147405
C         2.42076629429220   -0.10815311576960    0.33863149556265
O         1.31697322687908    0.79137116048068    0.15733221725907
C         1.03155093067372    1.60149688262801   -0.89246811644006
N        -0.18313343435127    1.98025109224920   -1.08219617290164
C         2.03862826038819    1.87743091154180   -2.06616680192237
C         3.42631092921515    2.23647017142076   -1.46670236448331
C         1.53566294437591    2.95104528062886   -3.06083985001620
C         1.68874856506948    1.91261673931354   -4.18699661593880
N         2.17898202376715    0.93815922713725   -3.22456198463033
C         1.72857671246150   -0.39360071229870   -3.21787134963343
N         1.20391363829344   -1.03141860107612   -4.21649434492821
C         2.01218339575343   -1.23152104534112   -1.98547064760572
C         2.95631251202915   -0.60332911730626   -1.01397584542189
N         4.22273848799390   -0.60426414218270   -1.30670577548765
O         5.15956343369167   -0.12149858054183   -0.40303689284353
H         2.48287541744341   -2.18784679603452    1.07030413596958
H         0.91364503010211   -1.67892077598533    0.62168687619396
H         1.63239900803344   -1.11484402978624    2.14445477378609
H         3.19709392393536    0.46819464788977    0.85458546833582
H        -0.79289831705047    1.88289001859737   -0.25853229009098
H         4.26147148193739    1.70199012483945   -1.93781439940226
H         3.50282269730895    1.99836405420241   -0.39902718831118
H         3.66414640319565    3.27578042306393   -1.70861941347711
H         2.31403934834161    3.71119293488905   -3.15531871098248
H         0.51515769431872    3.30083496522325   -2.85709776545270
H         2.50872834309380    2.18205176880347   -4.86680534517123
H         0.76756113021554    1.66295487233941   -4.71452892579869
H         1.00120506472811   -0.49526746027464   -5.05706499002946
H         2.45178853000265   -2.16942919421860   -2.35357487549650
H         1.06743368864272   -1.36484254760076   -1.44978221900974
H         5.88623829538137    0.13579319104224   -1.00257664368927
