32
 energy: -49.279182264293 gnorm: 0.123147755292 xtb: 6.4.1 (79825abcba525fcdf90b791dcacef51065a7a4e7)
C         1.07150000543103   -0.15079447383570    1.18951911374858
C         2.03302041860318    0.41614893970980    0.14419358839222
O         1.37387054724266    1.11102651440845   -0.92493648104838
C         2.00242623942843    2.21398750819953   -1.40268657344092
N         2.46863404220707    3.22347009529761   -0.75576710314744
C         2.02420505827517    2.07943422556735   -2.96772142655787
C         3.08057293521438    3.00020032073798   -3.63869586949781
C         0.61531490484653    2.15245946277917   -3.60387570452665
C         0.56022496340211    0.61586838173693   -3.68036788456596
N         1.98277003834240    0.63910657820723   -3.37704925527745
C         2.57180002049282   -0.58438128500260   -3.01288537179331
N         2.32516292595115   -1.64495539444779   -3.71551156694795
C         3.55101509867704   -0.65461081876533   -1.85635594337864
C         3.04275894503578   -0.57560040768891   -0.45448575165059
N         3.57376158963641   -1.53764694586202    0.23979739008004
O         3.34290584572495   -1.61737306647920    1.60642476621151
H         0.12684532169463    0.40220720871425    1.13865827013730
H         1.50794585828146   -0.18622935008650    2.19179408434503
H         0.88935434862500   -1.21751349971129    1.01886342286973
H         2.69724924041041    1.12958941965100    0.64506542280786
H         2.42994366502571    3.08321144181955    0.26332325278565
H         2.64656454109398    4.00344529071247   -3.73991280280074
H         3.44496961912238    2.65047142270183   -4.61203219905288
H         3.93161288507363    3.08139348504265   -2.95723123506702
H         0.73607350630158    2.51474305182393   -4.62700253017893
H        -0.23088245810716    2.62943832963372   -3.09227448172758
H         0.18385706379126    0.17283633888807   -4.61266171377237
H        -0.05167395983979    0.22739015664098   -2.86558444536502
H         1.84443147127557   -1.44492458258006   -4.58957836250828
H         4.22742890743967    0.18618018135739   -2.06602219036952
H         4.05199334958380   -1.61563606638599   -2.00715374946757
H         4.07852120760916   -2.22656467972646    1.81003945575612
