32
 energy: -49.285558229923 gnorm: 0.135299588383 xtb: 6.4.1 (79825abcba525fcdf90b791dcacef51065a7a4e7)
C         0.85218102718897   -0.80037250176341    0.79694520904323
C         1.82393770742540    0.16094196443106    0.11122280839107
O         1.30366181168809    0.87580604601640   -1.01955338711808
C         1.92724709728772    1.99539782409356   -1.46396980100401
N         2.55540140719226    2.81214265433314   -0.69373632294550
C         2.01712143978029    2.09868356057198   -3.02895145734275
C         3.27832056155238    2.79843165972885   -3.60658398054973
C         0.65099782468197    2.39317321699231   -3.69376607577882
C         0.54056205822844    0.87455899845506   -3.92095079754872
N         1.92856767026712    0.68878945687427   -3.52711480090197
C         2.27604998565601   -0.47688935022009   -2.82217285090938
N         1.82268473024505   -1.67142574794038   -3.03867594599668
C         3.44791422607709   -0.49558602642801   -1.85898061293634
C         3.12627174421605   -0.47401692785407   -0.40093814005307
N         4.10458918208993   -0.86846066437977    0.35855875015769
O         3.88629312801237   -0.93725851163248    1.72784129666837
H         0.03467754695760   -0.19964369004686    1.21117112083215
H         1.29439317217883   -1.38090803232924    1.61163695202931
H         0.43847454538445   -1.47296973246313    0.03757060341702
H         2.26448857213678    0.83265080279992    0.85673739412205
H         2.75003602309477    2.69545664394870    0.31036342682566
H         4.17575399550776    2.16629619590743   -3.59533242033595
H         3.52676605664850    3.73298154284095   -3.08950545755412
H         3.07375696526146    3.07231387565482   -4.64504323882015
H         0.79777041475085    2.99555926874111   -4.59277073629535
H        -0.15576896868625    2.77292614265971   -3.05328994603700
H         0.23494239083689    0.45616626329156   -4.88978830160307
H        -0.12981780696621    0.50744356011257   -3.14311741777932
H         1.00298480417797   -1.83706635829444   -3.61812657165447
H         4.12457494701638    0.32640660234639   -2.13262901604594
H         4.05771416770037   -1.38356021134182   -2.05116432458923
H         4.75588946607710   -1.34140075169883    1.91270498321449
