32
 energy: -49.290650930487 gnorm: 0.119839540594 xtb: 6.4.1 (79825abcba525fcdf90b791dcacef51065a7a4e7)
C         2.46172668007755   -0.78511767312922    1.39961243968613
C         2.55184713797920    0.14244538162160    0.18711217913799
O         1.30602619507529    0.85519384163634    0.17001580084916
C         0.88694607794331    1.45277601812847   -0.97327668048536
N        -0.34646274678872    1.76995009522038   -1.15497106499366
C         1.92825655483482    1.87020813628273   -2.07297474185281
C         3.28995099974840    2.33404609734989   -1.48597171374816
C         1.36464608151759    2.95416991370116   -3.02290447065459
C         1.71553830011594    2.05375157914699   -4.22128653625216
N         2.09973551919886    1.00803461201104   -3.28584803223462
C         1.87862273264766   -0.37877952169706   -3.35180172389376
N         1.68917378343598   -1.02440513821670   -4.45932486921198
C         1.78763735251229   -1.12013923606248   -2.03139946749568
C         2.84041416615689   -0.72245520568629   -1.04991314719022
N         4.06749478812000   -1.07464037097064   -1.29438233174116
O         4.96133118410430   -0.73688975014888   -0.28725670279847
H         3.41046369099847   -1.11510050714117    1.83753888271303
H         1.77605826327638   -1.59347219300999    1.12995056912364
H         1.98737301956560   -0.18585440191768    2.18450862779536
H         3.40335236071576    0.82821691914572    0.26278309545494
H        -1.05320924421564    1.53063208727242   -0.44578078408258
H         3.21649450494411    2.73452132960996   -0.46649520774459
H         3.78658489611842    3.11799993802417   -2.07013778454903
H         3.93512751346199    1.46155197967783   -1.35271764115637
H         1.77047238292575    3.96217365240477   -2.91402836989676
H         0.26915166112988    3.00590625316641   -2.97280504217579
H         2.55133879745950    2.44248089553461   -4.81914021007725
H         0.79248981997499    1.77114361686761   -4.72855561082264
H         1.72582296595767   -0.50289904197286   -5.33213415167801
H         1.75748556202645   -2.19831416709173   -2.24366053549210
H         0.83199758625769   -0.78607308449439   -1.61613911455911
H         5.63860037968834   -1.44043050299054   -0.29359456730043
