32
 energy: -49.286941532221 gnorm: 0.136272795766 xtb: 6.4.1 (79825abcba525fcdf90b791dcacef51065a7a4e7)
C         1.88717903365303   -0.63906979481539    1.46960176375184
C         2.30136526153770    0.28712323393957    0.32536923872107
O         1.11008149369459    1.01205616513604   -0.01475977200720
C         1.13870839182396    1.82340594978737   -1.10137947150153
N         0.07108863938183    2.51472070261358   -1.29420479362221
C         2.11529092854030    1.84689611547352   -2.33168339191120
C         3.56534887270529    2.19869532937443   -1.89867154143975
C         1.52498370091949    2.71415799492916   -3.46939627943022
C         1.61959245728515    1.46352858255830   -4.36212992381918
N         1.92694273797150    0.64205891965088   -3.20156967994140
C         1.85078451444056   -0.74714797530892   -2.99958369725273
N         1.54159514416965   -1.52636767336200   -3.98778887562993
C         1.87159435309446   -1.37551470442395   -1.61897625298303
C         2.84958243976556   -0.57944150906547   -0.81921764705038
N         4.11203885476927   -0.85672759376484   -0.95648628994376
O         5.04908406866402   -0.11674343022550   -0.24818499317352
H         1.98985310541796   -1.66078067238816    1.08706407401176
H         0.86661118605095   -0.42468727135132    1.79941555888073
H         2.51038101598858   -0.46359726150464    2.35335431474909
H         3.08406220220436    0.99031350013737    0.63192885620882
H        -0.48386050720057    2.42152157753347   -0.43219553425352
H         3.76854707586716    1.83659891894240   -0.88245045267673
H         3.71513805665513    3.28480825964603   -1.91869057131171
H         4.22206303014060    1.64627855384987   -2.57603229846541
H         2.22570930096930    3.53456770370871   -3.63831069894822
H         0.49208527526206    3.00193318321923   -3.23359781814226
H         2.36703986826062    1.53615618624346   -5.16409598809424
H         0.65050688009702    1.13728547766588   -4.74113685909457
H         1.48266399270067   -1.00623408492367   -4.86019703302158
H         2.06490090029534   -2.44255514434470   -1.79920491366448
H         0.88949669103592   -1.27685281294560   -1.14670648259276
H         5.83430345632674   -0.09497295834057   -0.82840898727043
