32
 energy: -49.287113183851 gnorm: 0.123813507404 xtb: 6.4.1 (79825abcba525fcdf90b791dcacef51065a7a4e7)
C         2.26177408200429   -0.89752865824295    1.42586258446050
C         2.50754345429896    0.01954429498703    0.22701881020756
O         1.39882748978403    0.92813107463241    0.15224298984611
C         0.97466784024825    1.59174443269098   -0.95209218903971
N        -0.22147303703971    2.05475060272267   -1.05099551576876
C         1.94057990614989    1.94021043941625   -2.14099850476326
C         3.13301639454417    2.70165966967464   -1.49895469517834
C         1.13276078762087    2.81393703010088   -3.13045618686270
C         1.76557928883857    1.98617460653832   -4.26374706731686
N         2.17021664473194    0.99429647907808   -3.27956056266598
C         1.94297536149814   -0.38958471173154   -3.37819337145927
N         1.79562664224839   -1.07426006492073   -4.46853224525823
C         1.80492059068531   -1.05145354273657   -2.02017083723339
C         2.89789008891402   -0.73641214702853   -1.05271356245012
N         4.08942719309253   -1.22622016121742   -1.22549620244907
O         5.05201635450082   -1.04804560487561   -0.24111978113542
H         3.10432341006909   -1.57764774423143    1.59414453142408
H         1.31225291933254   -1.38607043769343    1.18915132038646
H         2.20508316215888   -0.18212354129944    2.25361348089066
H         3.39130597973958    0.62721648291352    0.45233667297269
H        -0.74471172298307    1.72828571547933   -0.22676463611243
H         3.94213089350869    2.00658769061873   -1.23949894867646
H         2.76851739009874    3.27251235941347   -0.63654728755332
H         3.60224751707022    3.34250697774626   -2.25021513502444
H         1.29593391760831    3.89360222638752   -3.14829214289536
H         0.06106398591547    2.58467057710387   -3.06566816794139
H         2.66340869505427    2.44477778025059   -4.70042482253160
H         0.99774935012429    1.49563274656871   -4.86292445876125
H         2.04866946812220   -0.49572964794949   -5.26626635069610
H         1.73715530503774   -2.14702862113926   -2.07973745969071
H         0.84616741309274   -0.67493027401140   -1.65096725680731
H         5.73290667452475   -1.72338782522521   -0.42552308584068
