32
 energy: -49.288746657932 gnorm: 0.127803284921 xtb: 6.4.1 (79825abcba525fcdf90b791dcacef51065a7a4e7)
C         2.08833189165869   -1.02764742345428    1.31968477127947
C         2.35802086359893    0.07198413513223    0.29171098609226
O         1.23396444031708    0.96037713375712    0.20437531059845
C         0.94269491474357    1.69750318611313   -0.89637786521677
N        -0.13336946513616    2.38861549901349   -1.03551381198023
C         1.96703419691314    1.88253824228884   -2.07298484756482
C         3.32962137551080    2.42329141905891   -1.55832751857426
C         1.36147598302250    2.77181335913232   -3.18540806545305
C         1.84290270564474    1.71945356736341   -4.20067417912829
N         2.16460960372488    0.81641817057817   -3.10650397427617
C         1.89757548309787   -0.55926641831675   -3.21910459283439
N         1.97648637100473   -1.30497956661381   -4.27599429576457
C         1.70154927976420   -1.25638538677635   -1.88608036499647
C         2.74581412684974   -0.64580003214691   -1.01057850526889
N         3.96488628144197   -0.89604005140387   -1.38577107042788
O         4.99005129648483   -0.39785872614127   -0.59319736421963
H         3.02547322804878   -1.47784930795065    1.66588491595534
H         1.41016287751993   -1.78519548046707    0.91656758970789
H         1.56863132780535   -0.55973737730086    2.16298863237463
H         3.26294921670532    0.57518414835851    0.65082693229587
H        -0.67062548607277    2.41838873704009   -0.15791247379874
H         3.61875581421552    3.25584765670707   -2.21281969451501
H         4.03809414257460    1.61668489380298   -1.33487481827666
H         3.26901759348857    2.79929801704855   -0.53353408212592
H         1.79780637570614    3.77242197875807   -3.21732532870026
H         0.26423943299145    2.80877829190940   -3.18582598405772
H         2.71940742685471    2.03851407036690   -4.78122722866608
H         1.13900119341959    1.44583820799133   -4.98735388976287
H         2.11824104207388   -0.67106211641884   -5.05904097689366
H         1.71488831622243   -2.34042462963967   -2.06803111903797
H         0.73085192470507   -1.07313368149303   -1.41549118292931
H         5.75890321848127   -0.53396439574848   -1.17975110631361
