32
 energy: -49.291956124849 gnorm: 0.119095522365 xtb: 6.4.1 (79825abcba525fcdf90b791dcacef51065a7a4e7)
C         2.17168866697013   -1.03747311406335    1.31524837105495
C         2.42074401989314    0.01914260075177    0.23812884364937
O         1.15628393386654    0.60700271679511   -0.10236149382172
C         0.90653987797982    1.61990837588727   -0.96925269667206
N        -0.22805984267812    2.22586440923684   -0.98951000353274
C         1.94093267198333    2.00662355318500   -2.08656906740220
C         3.36002745637307    2.39989142081223   -1.59114968490546
C         1.37184680083465    2.97322824101953   -3.15278341910119
C         1.64425359575411    1.86801011758232   -4.18926088638844
N         2.04335401043134    0.94485730783558   -3.13822118521497
C         1.78888387959980   -0.43091289010229   -3.27604547654290
N         1.46062345052757   -1.11111097744936   -4.32909178336100
C         2.03970580309493   -1.25525837806592   -2.02748727051475
C         2.96989310691677   -0.62137628677683   -1.04628794451356
N         4.22225581909500   -0.94422479555618   -1.17622225019769
O         5.15450480045736   -0.39956416073222   -0.30353808637393
H         3.10935291393113   -1.56681531356768    1.51860214880977
H         1.34270658893404   -1.68441972039967    1.01434217900725
H         1.87776256786983   -0.50389538400484    2.22579334255382
H         3.11177319500334    0.74726220327122    0.67789055501027
H        -0.77643650751496    1.93760848000923   -0.16737489188977
H         3.34060746461341    2.87222748731663   -0.60037719748128
H         3.94211743651216    3.00056659009202   -2.30026141735034
H         3.95905883593948    1.50219824561325   -1.41632480081604
H         1.93374216404259    3.90962635499264   -3.16004341657430
H         0.31046806780779    3.23965434430566   -3.06453977092182
H         2.44709746776735    2.02082865893120   -4.92355659585612
H         0.78495211412122    1.52128546694086   -4.76423102261790
H         0.94863229652033   -0.54484824096785   -5.00163872787393
H         2.48622127354583   -2.23532678159857   -2.24774836342589
H         1.08054083402111   -1.49370404182903   -1.55798226712378
H         6.04195092418283   -0.79652415857097   -0.39608785691068
