32
 energy: -49.289753860010 gnorm: 0.125224980654 xtb: 6.4.1 (79825abcba525fcdf90b791dcacef51065a7a4e7)
C         1.98564039370134   -1.07545388534646    1.19913914514780
C         2.39746657513464   -0.00769530209327    0.18477104883960
O         1.15119372960555    0.65412251813502   -0.07823783203291
C         0.99175141384700    1.69324176879566   -0.93536073328964
N        -0.14395423011091    2.29727858269175   -0.92046698432421
C         2.02809804167924    2.03384014600702   -2.06579930995279
C         3.46420573059893    2.39995294378069   -1.59944524640236
C         1.44773296151217    3.04598086637409   -3.08253130068932
C         1.42785155943116    1.89020235916411   -4.09928047048892
N         2.01688167991144    0.97952494868286   -3.12980284555039
C         1.89147151513055   -0.41493400724805   -3.25728117080442
N         1.69757362401551   -1.04237319185007   -4.37444479377557
C         2.05657939811080   -1.36940530446964   -2.08977158284624
C         2.92883644524597   -0.80119639124594   -1.01920475893306
N         4.20545919095247   -1.03264311505632   -1.09790186644197
O         5.06250435620404   -0.33846768549204   -0.25474406349805
H         2.78977493344794   -1.75262983016794    1.50828400841991
H         1.17374950577194   -1.71624318681599    0.84344546469555
H         1.54817718139758   -0.55915964495792    2.06068199876613
H         3.22704425540257    0.55017127685690    0.63383183970717
H        -0.94949483482731    1.93764021082528   -0.38992089023368
H         4.05526492496798    1.64069692072762   -1.07096825104312
H         3.48912912342705    3.37499063463636   -1.09828740529409
H         4.04701022703344    2.42480050766653   -2.52409485182074
H         2.07307305146532    3.89618722708687   -3.36310116581731
H         0.45570763846003    3.34825166974889   -2.72223593313445
H         1.96610031025483    2.03606462799236   -5.04591369075653
H         0.42700598119596    1.60572632111714   -4.42576046524914
H         1.41872880306933   -0.43836933569854   -5.14420626953800
H         2.62183573438893   -2.26293779891008   -2.39062045681850
H         1.10980542227032   -1.59705153888569   -1.59068747195015
H         5.88789591574234   -0.85566559450775   -0.18447017379942
