32
 energy: -49.288533058146 gnorm: 0.117141269678 xtb: 6.4.1 (79825abcba525fcdf90b791dcacef51065a7a4e7)
C         2.14781966471997   -1.12724619067056    1.36786595193394
C         2.39557749466654   -0.06766790663708    0.29336061619688
O         1.24043401586914    0.75846223843178    0.08473415976079
C         1.08001674400713    1.64193221925225   -0.93192576260993
N        -0.12671150857704    2.07969402096547   -1.01607517983546
C         2.06337968171610    1.92066219626385   -2.12491354400257
C         3.44076762838047    2.39002888755686   -1.58046216123715
C         1.50777198130822    2.94933985352341   -3.13887544933935
C         1.61094399952597    1.87316684181403   -4.23487056179969
N         2.00178296299055    0.90378326476482   -3.22308152040715
C         1.63865063492226   -0.45401530662881   -3.25489558760749
N         1.41662437220277   -1.05895235028171   -4.37921154291934
C         1.93789467365121   -1.31902504110159   -2.04511633636066
C         2.84818287977280   -0.75347557449690   -1.00524317925858
N         4.12099013281996   -0.86175114537469   -1.24558569462042
O         4.90390723348956   -0.16947834558625   -0.33173658066998
H         3.13353197753511   -1.57351060798481    1.54104062626091
H         1.41559202971255   -1.89094177076761    1.09054397024558
H         1.76826820525743   -0.62902741945118    2.26670333016686
H         3.19383057307661    0.51768705832121    0.76370242598765
H        -0.72329307121921    1.78188341667296   -0.23178322643999
H         3.29363741544476    3.08503334175634   -0.74354512652470
H         3.95130464485168    2.99720653369670   -2.33753951217702
H         4.12929406198876    1.59027035859438   -1.29485228563904
H         2.15784289815388    3.79994993006193   -3.35449277184287
H         0.49447641195231    3.20517172507352   -2.80260655004115
H         2.45615008050343    2.13445574269036   -4.88637402525962
H         0.66251839679736    1.72308744518875   -4.75175809224824
H         1.52398316229827   -0.51856234642571   -5.23452467175416
H         2.46060189269783   -2.22698563737826   -2.37799739952177
H         0.97307438244205   -1.54419556613733   -1.58067177725763
H         5.84522905996335   -0.40213090304587   -0.44788015091354
