32
 energy: -49.287529965441 gnorm: 0.121912897913 xtb: 6.4.1 (79825abcba525fcdf90b791dcacef51065a7a4e7)
C         2.31470017692179   -0.34302256970105    1.48250309836664
C         2.41924125264942    0.41028562710989    0.15575906095374
O         1.12242676933658    0.90956200665756   -0.20391827108486
C         0.89516575175116    1.86325556923507   -1.14129297488126
N        -0.08118997418446    2.70071855014063   -1.12412263368073
C         1.99128880579741    1.86415956215083   -2.26664907434704
C         3.44991041883287    2.21587030629232   -1.86334707580445
C         1.46842809174668    2.67792713204010   -3.47470346861696
C         1.60845024927548    1.45111715269360   -4.39412131186868
N         1.98145166236172    0.69799899879160   -3.20674619684668
C         1.82051217861598   -0.69397718799276   -3.09275075743935
N         1.47524925192087   -1.43807769655656   -4.09596499358389
C         1.89753739406518   -1.36463316535700   -1.73420654887003
C         2.87527907940027   -0.64137337505108   -0.86776352860525
N         4.06763177363926   -1.15295424524411   -0.78961936774267
O         4.93290843842325   -0.53579745136387    0.10354064353195
H         3.24526888497911   -0.27513895647076    2.05713677091787
H         2.12674898927635   -1.39461030340592    1.24769823170212
H         1.50940891695733   -0.02728467974172    2.15481661082294
H         3.18603707073431    1.16387988640010    0.36833775318295
H        -0.79448667050793    2.63044687870386   -0.38521513607455
H         4.08203353715738    1.34695451075951   -1.63859318008953
H         3.44563544856412    2.98948636818682   -1.08618636844854
H         3.98991997336669    2.63835597660982   -2.71490500308963
H         2.10591951718624    3.51696666690752   -3.76147493685525
H         0.44464125585445    2.99745025830759   -3.24005454359848
H         2.40792993547178    1.43165108024108   -5.14748395712214
H         0.70204093228436    1.16560409433324   -4.92901579501032
H         1.38123099913499   -1.02941853239006   -5.02293104984545
H         2.24693298776484   -2.37672799586471   -1.98322836144245
H         0.84738540728972   -1.33043861935100   -1.42875564104535
H         5.85004557441515   -0.80246687055924   -0.10005262079975
