32
 energy: -49.288517208528 gnorm: 0.128205204224 xtb: 6.4.1 (79825abcba525fcdf90b791dcacef51065a7a4e7)
C         2.20057161572831   -0.96916297300290    1.21657257948349
C         2.55189201763572    0.07962416638425    0.16050850005670
O         1.30624384604580    0.77205381451246   -0.01058888151161
C         0.94585037032765    1.66939864611823   -0.96176664121579
N        -0.23623099531850    2.17510421406343   -1.00483792732401
C         1.92637094616399    2.07725493680555   -2.11941322817380
C         3.33055166507694    2.47253372942384   -1.58465985478300
C         1.34427890502097    3.06222738556182   -3.16152383807275
C         1.33316371423700    1.86418926575132   -4.12826021227526
N         1.83233783839030    0.95558157157924   -3.10775350493234
C         1.98269399925972   -0.43903913264642   -3.20220099640923
N         1.78281677171055   -1.00064102501386   -4.35284572847996
C         2.02639808431898   -1.39739675974344   -2.02704342282568
C         2.96533724955956   -0.78706121067667   -1.03927279485363
N         4.19877282855888   -1.18628673319271   -1.13298570804355
O         5.05361415831674   -0.56006557678381   -0.23609419302731
H         3.00274707186669   -1.41172665401846    1.81775648582796
H         1.49775264793577   -1.69335276800618    0.79480205413238
H         1.69662771295361   -0.44992738650077    2.03914466859007
H         3.33819643245699    0.77004381567805    0.48626288105681
H        -0.80668776707460    1.74836614605661   -0.26174420229073
H         3.20149791768043    3.10531853316903   -0.69694529275380
H         3.96600602516794    3.03390872570696   -2.28002646499787
H         3.92172990295141    1.58531402548800   -1.34257545141904
H         2.01923982612816    3.86631813654922   -3.46233332742878
H         0.31636407346093    3.38660797209719   -2.95304611883145
H         2.00897869106851    1.92152125613656   -4.99260339353995
H         0.37801119775373    1.53866366984802   -4.54169029117421
H         1.76588968303197   -0.25053982411627   -5.03999163079883
H         2.29323470594847   -2.39458911634042   -2.40497292441025
H         0.99910295500721   -1.45481125262713   -1.65467664681980
H         5.88936481236265   -1.06520072002830   -0.24400967428315
