32
 energy: -49.292911267260 gnorm: 0.125832929542 xtb: 6.4.1 (79825abcba525fcdf90b791dcacef51065a7a4e7)
C         2.07392629523602   -1.08208323486380    1.31378014048915
C         2.30828729239604   -0.06471235742084    0.19633518979913
O         1.07691781894817    0.63226697302879   -0.04516328214978
C         0.95550002719753    1.73325084092664   -0.82806976671015
N        -0.11642444032772    2.44242969987562   -0.88241022518295
C         1.93550103380155    1.98541210392233   -2.02970435041007
C         3.41347610381621    2.27643118578122   -1.64914217207519
C         1.44992748761126    3.03300182944869   -3.06012683387353
C         1.23554809651679    1.89099572687556   -4.07000882637666
N         1.78067473616911    0.95142934525600   -3.10241974243465
C         1.97572107877028   -0.42351679244556   -3.32144993560710
N         1.95959054120571   -0.90538352214878   -4.52431115694062
C         2.10001261311507   -1.30111962356847   -2.09030430431514
C         2.97090580567640   -0.72951324545753   -1.02043598812281
N         4.22886870247071   -1.02408687371651   -1.16285141099497
O         5.15681147570898   -0.59108659519080   -0.22543262472089
H         3.02228237138498   -1.34188342247727    1.79740682911573
H         1.62091044831693   -1.99618049629709    0.91944706977900
H         1.29979545552881   -0.71903729947651    1.99869544753720
H         2.94625354578190    0.76959267902815    0.50939110289622
H        -0.72733626575191    2.20906881638907   -0.08739825726838
H         3.95588764632286    2.21912905476330   -2.60183037299046
H         3.84660344582108    1.51098941915544   -0.99417769702793
H         3.46099920599194    3.15664068024975   -1.00243654191921
H         2.23333473687521    3.69333901047331   -3.43807976859647
H         0.54934609157104    3.55877216968401   -2.71688737507711
H         1.85284452502811    1.96639776733497   -4.97574699090591
H         0.22809955837278    1.69358891108020   -4.43782081508497
H         1.78729703006681   -0.23553437822161   -5.27045114906125
H         2.49578226238032   -2.26913680400588   -2.42902868174310
H         1.06655400697836   -1.42972121181574   -1.75457576062880
H         5.95630479383553   -0.74587519669637   -0.76446346515108
