32
 energy: -49.291337093292 gnorm: 0.119319043313 xtb: 6.4.1 (79825abcba525fcdf90b791dcacef51065a7a4e7)
C         2.07191966598655   -1.01836675409383    1.44752543283162
C         2.40285913453158   -0.13085235826751    0.24692179872216
O         1.17010875276711    0.54799090206067   -0.03569247740741
C         1.03978839906472    1.65667139471955   -0.80620821605381
N        -0.01211873055110    2.37961569533458   -0.64573222053311
C         1.84111099815921    2.03467239127982   -2.10347854279074
C         3.31790451797762    2.41380651337686   -1.80470066566152
C         1.18697246337399    3.00204653336111   -3.11900128876279
C         1.55564946589941    2.01737024809177   -4.24349583508565
N         1.79276505785473    1.02375270776584   -3.20779459259564
C         1.94373655961027   -0.37104436394699   -3.29858530585179
N         2.26207090182362   -0.96911476618467   -4.40325988299581
C         1.84313349179563   -1.20484275261746   -2.03525083490650
C         2.88605553827157   -0.82377141967560   -1.03679938414164
N         4.12805031489096   -1.10509222308264   -1.29724906024884
O         4.99945859418252   -0.69254029754626   -0.29836491049482
H         2.93614964320763   -1.34696563196797    2.03565763457362
H         1.59254608952266   -1.92258034000166    1.06165693016635
H         1.32090117142071   -0.58345674107795    2.11611678159084
H         3.21209621714311    0.56692688471979    0.49045684224058
H        -0.52267235329201    2.07679427620178    0.19530807441772
H         3.76751332848848    3.09230992807118   -2.54131023316341
H         4.00712049063369    1.56146999927718   -1.83604820175125
H         3.46779495709296    2.97899080858139   -0.88092854083360
H         1.58678217862002    4.01739917644983   -3.16180003901172
H         0.10093805660813    2.96723803599515   -2.96211831334079
H         2.41171691564184    2.24605557183923   -4.89307532731909
H         0.70081966669459    1.70310932593799   -4.84325725681361
H         2.32120163210412   -0.37483648660157   -5.22693743161553
H         2.13531173243741   -2.20411995089114   -2.38809932529362
H         0.81426370911235   -1.17144455352341   -1.66430575795176
H         5.87528928984245   -1.12364743946978   -0.32612364875889
