32
 energy: -49.297680734184 gnorm: 0.110881689972 xtb: 6.4.1 (79825abcba525fcdf90b791dcacef51065a7a4e7)
C         1.94471725286889   -1.23734563057344    1.12646298472661
C         2.39066380185108   -0.06808608593713    0.24747742217341
O         1.23497024276552    0.77487595337473    0.12848206101085
C         1.02794467563072    1.69810811981172   -0.84344031661716
N         0.02787653945838    2.49582807866167   -0.70773401766154
C         1.93149928448244    1.97255096341778   -2.09890164688189
C         3.33061389084577    2.42917096286120   -1.60099955148012
C         1.27115295873317    2.93789494711900   -3.11233646543517
C         1.47108817443223    1.89308593465485   -4.22516985005343
N         1.97314575004007    0.97446216291579   -3.21509794638216
C         1.92460165515972   -0.42741926422307   -3.30925822178449
N         1.93084047214850   -1.14828624039513   -4.38612532721272
C         1.98057976300290   -1.25872744553030   -2.04152485675112
C         2.93265351112790   -0.63915296257354   -1.07225188308999
N         4.18461375355156   -0.91568112872415   -1.28592027538106
O         5.04165280827355   -0.54174058110789   -0.25977528013970
H         2.76678849034326   -1.95501263975984    1.22607779199833
H         1.09915617912207   -1.63766866275321    0.55983817120536
H         1.67627751474359   -0.82938592298497    2.10712545309657
H         3.20796184985989    0.45013090941167    0.76181669832199
H        -0.57702402614631    2.38107033937950    0.11727540834840
H         3.97286124903923    2.77339563469632   -2.42205760560931
H         3.78614024632618    1.61856445461833   -1.01971503361655
H         3.07629058173342    3.20671025921166   -0.87573568478259
H         1.84901899111093    3.84787393097464   -3.28734970682331
H         0.23814445664431    3.17634837878459   -2.82715577375341
H         2.24686129148893    2.05458701015359   -4.98621876426402
H         0.49953942858049    1.56128106897432   -4.59287386481460
H         2.01755975735573   -0.54910806001830   -5.20378852117937
H         2.38252697339627   -2.23614375629288   -2.34404906144826
H         0.96856171052214   -1.46077813599082   -1.67781659065811
H         5.92954414928024   -0.87192983059939   -0.49710911611039
