32
 energy: -49.285833980861 gnorm: 0.125852325956 xtb: 6.4.1 (79825abcba525fcdf90b791dcacef51065a7a4e7)
C         1.95842797018482   -1.20760176935720    1.24928859655304
C         2.38965415714836   -0.06440180759470    0.32962038278451
O         1.41703543309874    0.97680285428051    0.15561423508330
C         1.06404544940635    1.60263633836330   -0.99485559596915
N        -0.03252543220914    2.27527364668004   -0.99583224092128
C         2.04259650951374    1.93412090187421   -2.17826961777080
C         3.36047797768659    2.50208603996756   -1.58284202641832
C         1.37889200771349    2.88016355579592   -3.20758785315479
C         1.58449005768976    1.81186569650572   -4.29683861759494
N         2.08473144891747    0.91015252246592   -3.27075451627897
C         1.87907438807322   -0.47881289077807   -3.20022465395830
N         1.73534935311505   -1.19263732593673   -4.27219884396075
C         1.77454694748761   -1.16104051264997   -1.84930119785129
C         2.89328762990283   -0.75545246927320   -0.94723432119821
N         4.14425058512892   -0.92094926147630   -1.25904985101833
O         5.01453946840075   -0.39199537704123   -0.31558492507898
H         2.84670706479563   -1.75555688138365    1.58316822410405
H         1.33407747343093   -1.95571214266767    0.75248576147032
H         1.33429162688086   -0.78143822019820    2.04240166639521
H         3.27470984618780    0.39863629920830    0.78055493955324
H        -0.65731775757747    2.09553171054326   -0.19768314970206
H         4.13750282229125    2.56665980175675   -2.35561057938939
H         3.68734363726922    2.16812565064239   -0.59081977558794
H         3.21533481160536    3.57570078562311   -1.43607618512837
H         1.95627173219974    3.79850591451789   -3.33368503734077
H         0.30978769111484    2.94877730632989   -2.96758213674572
H         2.33305932501489    2.09692059379657   -5.04882912935128
H         0.66514669250232    1.57277066282340   -4.83242148601039
H         1.90894746699073   -0.63714241660122   -5.10670284313826
H         1.84290385303198   -2.23182885175996   -2.08839271472952
H         0.73744603732143   -1.10322317106589   -1.50525532004159
H         5.88061220462618   -0.75199194714203   -0.58765809218825
