32
 energy: -49.288581509421 gnorm: 0.119677532355 xtb: 6.4.1 (79825abcba525fcdf90b791dcacef51065a7a4e7)
C         2.01232576320525   -1.13973526650928    1.15890094664127
C         2.35864233670349    0.02039918179717    0.22466077468898
O         1.15695425663837    0.77315651316924    0.00178271191499
C         1.02092051001469    1.69524394529611   -0.98366129820714
N         0.11131946290346    2.58312913771294   -0.78568297632084
C         1.93772054353911    1.93368670852068   -2.23687144575478
C         3.35422889934309    2.44904272895709   -1.86025195380510
C         1.42448120815953    2.94194289286642   -3.29280764320135
C         1.31768134211348    1.74194859825372   -4.25124678418463
N         2.02126890487848    0.88836120605473   -3.30650882694700
C         1.79974162519152   -0.49916899936661   -3.25982029170804
N         1.31097541430293   -1.19000166523795   -4.24124206576461
C         2.25462582117025   -1.26581706277733   -2.03234898222319
C         3.08294883437314   -0.65400080446666   -0.95097538309952
N         4.34703981679208   -0.95467904000370   -0.91643532762730
O         5.06251040986860   -0.45338741515704    0.16251302824505
H         2.96672151473773   -1.58025249523928    1.46848693509490
H         1.45142137322352   -1.90890841293072    0.62033370991718
H         1.53003335942363   -0.75320362886645    2.06343243772045
H         3.10616700965563    0.66056109318028    0.70681160699760
H        -0.40923731197758    2.58860111290210    0.10240783079824
H         3.91648493038071    1.83555064540862   -1.14428810239637
H         3.34934837634980    3.44687336586589   -1.40551130543415
H         3.93228340748432    2.42633963301932   -2.78793343395088
H         2.15289199965942    3.70184695926278   -3.58364103693008
H         0.41545839570767    3.22838862872189   -2.96859099201206
H         1.76465465138391    1.81687087430359   -5.25209816686561
H         0.27374633082210    1.51380223596285   -4.46886251295688
H         0.92539847209100   -0.56024675878106   -4.94113277532458
H         2.77905880893325   -2.08786207923413   -2.53992865483786
H         1.33905669931394   -1.75977875674674   -1.69319747598016
H         5.94208108822694   -0.87692161185222    0.13648364944386
