32
 energy: -49.290205493803 gnorm: 0.128695879130 xtb: 6.4.1 (79825abcba525fcdf90b791dcacef51065a7a4e7)
C         1.00783473952991   -1.02646845310246    0.32765166697166
C         1.93560282198364    0.15201692482068    0.02920498732153
O         1.23326301338967    0.95084321303358   -0.93462480217988
C         1.96560429369761    2.03840631492474   -1.28209149511848
N         2.34529096633528    3.02511987073425   -0.54919041752487
C         2.09133095910622    2.04319666000155   -2.84800427738280
C         3.39188115678006    2.47048568259884   -3.58279898375041
C         0.73174945556597    2.44742591001191   -3.46698186151104
C         0.60330494216272    1.00357239859258   -3.98542871710108
N         1.78309575951749    0.62602020824315   -3.22271996220899
C         2.09149854703441   -0.62434668736942   -2.65883651094251
N         1.43753402901641   -1.71299066659915   -2.91674259986845
C         3.44579709248555   -0.63282599431448   -1.97534675974138
C         3.24453161319879   -0.44837059075924   -0.50726112397759
N         4.18108683223022   -0.84055908029497    0.30426764528454
O         4.06352199686257   -0.43495600007092    1.62675986365149
H         0.02333716826949   -0.62524445288270    0.59327169260573
H         1.34939764106959   -1.68368139152159    1.13245081682793
H         0.88932841771811   -1.57896070069906   -0.61091024336020
H         2.21492194786289    0.73979170653078    0.91100511912453
H         2.15292479999628    2.94336194627438    0.45879047722494
H         4.22838613788726    2.02549305212131   -3.02840778776623
H         3.50976240178676    3.56068450330241   -3.57577064751925
H         3.35433658916501    2.00577824344903   -4.57168359440537
H         0.82964177678723    3.23992452271300   -4.21195405886716
H        -0.04644460895545    2.77608374617468   -2.76577386868141
H         0.78649513950882    0.86394393865714   -5.05969461226143
H        -0.34178473812299    0.50537518809547   -3.76676756413980
H         0.61287945949486   -1.40991542378461   -3.42977092596862
H         4.10622429877990    0.15799806966548   -2.35856768787147
H         3.89823210666806   -1.60752221646715   -2.18164398725796
H         4.87050862795391   -0.80242782748998    2.03595462949418
