32
 energy: -49.285693695091 gnorm: 0.125633321842 xtb: 6.4.1 (79825abcba525fcdf90b791dcacef51065a7a4e7)
C         1.82246842274372   -1.17519510159427    1.17376989342167
C         2.28225488597652   -0.23060728762030    0.06246342822181
O         1.11330233691941    0.43289004224547   -0.44121673666761
C         1.10293935917475    1.67788698720640   -0.97947831908645
N         0.24950767575118    2.55907145070976   -0.59207944254182
C         2.01187814335644    1.98049948681138   -2.22453610913995
C         3.38995703039336    2.49667064861162   -1.72614278415389
C         1.53954694618991    2.98968798178153   -3.29851851747020
C         1.36190736562451    1.74334262684860   -4.18455776027312
N         2.08132951791471    0.89124731500091   -3.25045816957847
C         1.73523393189597   -0.46654060893393   -3.13589808552942
N         0.92922358568890   -1.14105920609436   -3.89398967594210
C         2.47080497311501   -1.43011802945314   -2.22386272895359
C         3.16341688569008   -0.82198116772469   -1.04901580079113
N         4.46031689192593   -0.80443877273608   -0.96375703069137
O         4.95746166718742   -0.03309081685862    0.07796770187811
H         2.69953281568238   -1.73722202355856    1.51384921965217
H         1.05087008577620   -1.86863314936663    0.82725090613049
H         1.35745060549085   -0.63029050924278    2.00264099227312
H         2.86437048982717    0.56406335849753    0.54278605195906
H        -0.32701945279480    2.30792871837084    0.22294103600451
H         3.34654690486152    3.47341814719324   -1.22695494107307
H         3.99400913259821    2.43295872195316   -2.63912729361853
H         3.95986246796778    1.83607801077233   -1.06729490729141
H         2.34370272728416    3.69678014246705   -3.51293561238203
H         0.59159726976450    3.47167455463261   -3.02580074862030
H         1.80517359363350    1.82397654389362   -5.18661324708588
H         0.32739636573709    1.52646574129331   -4.45280965741957
H         0.37567651562175   -0.63281111284126   -4.57983028058732
H         3.22888261428103   -1.89242602632908   -2.87194813447126
H         1.77338821932197   -2.16143342632464   -1.80424817378385
H         5.93269346361858   -0.08138931029833    0.06083525442095
