32
 energy: -49.283496659450 gnorm: 0.134690060774 xtb: 6.4.1 (79825abcba525fcdf90b791dcacef51065a7a4e7)
C         2.01086644605174   -0.82389787243449    1.43673020255530
C         2.32942903914575    0.04099120370447    0.21642837309265
O         1.12758054844589    0.71401631693027   -0.18726690671876
C         1.05500982204265    1.75434153168869   -1.05462338475202
N         0.21416149896650    2.72443398192924   -0.97213491927596
C         2.00422205377885    2.00215983892377   -2.28160961023573
C         3.49829797460450    2.24310596313273   -1.93002448603720
C         1.43786832441373    2.88310129851956   -3.42098751163727
C         1.31622400874610    1.66146062791664   -4.34985501319089
N         1.80236547077999    0.86412206839861   -3.23446522314406
C         1.74079820732575   -0.53989397164145   -3.19648339761979
N         1.39836562167696   -1.33935953407316   -4.15717356667859
C         2.22476617079515   -1.34965947861617   -2.00845582816062
C         3.02559168601137   -0.76244056345620   -0.89326103307741
N         4.32129211219682   -0.86210348706948   -0.86579961894541
O         4.89954155054498   -0.30260428601280    0.26553112327297
H         2.86249834805809   -1.47598856407054    1.66094213921940
H         1.12962539007263   -1.43353260496919    1.21751472612215
H         1.90434911174898   -0.18004159088742    2.31666942310208
H         3.10349882674936    0.73854154973221    0.55600062598325
H        -0.31969546791307    2.60157617724552   -0.10057465715462
H         4.11352864843603    1.39731356637116   -2.26354369110912
H         3.57697732766118    2.21573914639470   -0.83661720584607
H         3.89965813781306    3.15567562680906   -2.37878054042427
H         2.19318981018047    3.61066630835650   -3.72555137466272
H         0.49055024672476    3.40612100336309   -3.23569456771562
H         1.93384756830113    1.40225131798201   -5.22074745770600
H         0.34601648034967    1.24099336321309   -4.61652392681156
H         1.01681002117996   -0.85764803754587   -4.96802323021581
H         2.70864077712078   -2.20672513245095   -2.49807701811832
H         1.33655972550410   -1.71561907637093   -1.48457454484747
H         5.85992852471350   -0.44218649516038    0.15654952112764
