32
 energy: -49.288367686154 gnorm: 0.127098305326 xtb: 6.4.1 (79825abcba525fcdf90b791dcacef51065a7a4e7)
C         2.05026965570057   -1.10628474173563    1.23126034617421
C         2.36928181754750   -0.02900897845273    0.19378263753495
O         1.12106768983387    0.66368620621311    0.04375804595331
C         0.89965100771208    1.58048627311220   -0.93107662055437
N        -0.19977891937504    2.23579533007680   -1.06043458675240
C         2.00728953223711    1.92628407331635   -1.99007319609945
C         3.48440931224166    2.22938563542297   -1.61567156191543
C         1.54948108818778    3.03879218330805   -2.96358927020499
C         1.66249242045454    2.01616358000420   -4.10877802291270
N         1.91728080384988    0.96533798585956   -3.13562586248290
C         1.80759350555339   -0.42950730942122   -3.27299216992252
N         1.50478805133460   -1.17237551214738   -4.29072816913233
C         1.94273525833577   -1.29672242754231   -2.03564445471170
C         2.91453524121167   -0.66305859725148   -1.09549446670815
N         4.19508169840719   -0.84292334193014   -1.22731213400625
O         5.09992603531244   -0.26585471683320   -0.34664786838882
H         2.91154056048292   -1.22675775840145    1.89794531409038
H         1.81167366691816   -2.10133322347704    0.84493637869971
H         1.21021097706315   -0.77037471262330    1.84904328611063
H         3.19797685156983    0.60175423599005    0.53506280894629
H        -0.87163272485198    1.97626242412579   -0.32492814621013
H         3.94099942680092    2.92938202877894   -2.32745744097169
H         4.23614293956359    1.43174587702192   -1.58181571693900
H         3.39817361486770    2.68414989124770   -0.62521295564078
H         2.19335657230804    3.91810362863842   -3.03327626833338
H         0.50208920464213    3.26981319280932   -2.72929422255234
H         2.53511436715670    2.18609080979506   -4.75434571684666
H         0.89434151815154    1.80847961866675   -4.85444499375125
H         1.29270355321939   -0.59069045702239   -5.09805120629772
H         2.27536114197790   -2.27609868535992   -2.40794441400958
H         0.94251082929282   -1.36487517841214   -1.59724393071011
H         5.89222812702152   -0.73165815670209   -0.67678098584771
