32
 energy: -49.288381211266 gnorm: 0.133247751186 xtb: 6.4.1 (79825abcba525fcdf90b791dcacef51065a7a4e7)
C         2.34823280836021   -0.89280573482063    1.37202866395133
C         2.50834744058686    0.02579455395836    0.15992774492015
O         1.30468895578006    0.80740089830828    0.13403806035340
C         0.93186437665183    1.55792027593861   -0.93253253529030
N        -0.23015022432918    2.10833415859773   -0.97347445884981
C         1.92247424439967    1.98958454095000   -2.07282680555900
C         3.32891469428978    2.54893337543060   -1.72213585809208
C         1.23071278950791    2.91761271652253   -3.10006884729564
C         1.54666740520568    1.94774091770793   -4.25311675515462
N         1.97220954501710    1.02174686578759   -3.21502928672165
C         1.94917095746873   -0.38170640179626   -3.29429070098459
N         1.74563069559020   -1.01090208389907   -4.40874798617067
C         1.93620051011354   -1.27691773518711   -2.06963436104324
C         2.93737381463549   -0.75327288787662   -1.09328650108348
N         4.12134524014929   -1.28725646000082   -1.14427340884377
O         4.87071662617252   -0.76202053593431   -0.10029506702835
H         3.27979806924190   -1.41835431442226    1.61026178339509
H         1.61415046763193   -1.66289916010030    1.11830643360612
H         1.98983320792560   -0.30708279031690    2.22564933538522
H         3.23076938610512    0.76616036008023    0.52191511191989
H        -0.75120363064300    1.86029586358312   -0.12101041624025
H         3.22835170862432    3.45576367696531   -1.11168150893800
H         3.76240862070077    2.72208430326258   -2.71439622670791
H         3.97174139624762    1.83970726906072   -1.19390529221694
H         1.59464313380355    3.94219936605973   -3.20203667397041
H         0.18515064962406    3.08723084403348   -2.81140964332216
H         2.38235831557526    2.25727728149638   -4.89569742500011
H         0.73010824140384    1.58907181877330   -4.88064785614035
H         1.69239389069237   -0.42623011883138   -5.23967058028896
H         2.28307150243945   -2.27155653303187   -2.38395787536189
H         0.99948551875331   -1.41911464984178   -1.52224621941284
H         5.82439970424085   -0.87170186017572   -0.27963250682606
