32
 energy: -49.291705242936 gnorm: 0.127632898632 xtb: 6.4.1 (79825abcba525fcdf90b791dcacef51065a7a4e7)
C         2.17807348528558   -0.62758615378797    1.57100836878809
C         2.45061199276620    0.07951139212185    0.24270583255324
O         1.21093303472805    0.77700234579302    0.05015729336253
C         0.95772643296717    1.65657066159086   -0.95089031553040
N        -0.11291662723506    2.36974317742359   -0.95513302514503
C         1.92027814796054    1.89667073813661   -2.16898682143764
C         3.38064030380777    2.30655621563174   -1.83243628926418
C         1.27068123471727    2.87444460620119   -3.17744035032089
C         1.39395055215371    1.82506765253900   -4.29708796769243
N         1.92183642238475    0.91052991093292   -3.29652117075902
C         1.88711154229185   -0.49475936445210   -3.27529703593663
N         2.09159693703035   -1.15489233324444   -4.37153654915069
C         1.84411160387255   -1.18906196052286   -1.92716884432561
C         2.89553226337839   -0.78661515429052   -0.94617027123136
N         4.10674334355635   -1.21183681733913   -1.15032877243995
O         5.04857926121774   -0.72402595993270   -0.25461302956360
H         3.15996659725215   -0.99009213612976    1.89542398586437
H         1.50226019696879   -1.48645282668353    1.52718864643666
H         1.83501190021208    0.15911981341175    2.25188453909738
H         3.26089307231393    0.79508096430688    0.42291293835923
H        -0.79363009687298    2.20144660521157   -0.20146199640370
H         3.84297656845117    3.06166009213784   -2.48141389367399
H         3.98361454155195    1.39255827924916   -1.89167059179974
H         3.47683829226318    2.62784814482768   -0.79187259002459
H         1.68300350117089    3.86319961624118   -3.38951205953725
H         0.22376377130489    3.13018064101067   -2.96801844584344
H         2.23822114881808    2.02331107194015   -4.97163128296209
H         0.46079095536922    1.58956099132074   -4.80988173704847
H         2.12248569445079   -0.47119446540317   -5.12433860638115
H         2.07357117489507   -2.23281518754468   -2.18475883070879
H         0.86302431091405   -1.00196549200725   -1.48023332898905
H         5.73876240281922   -1.40815328559623   -0.35115502573131
