32
 energy: -49.281053113368 gnorm: 0.118590323850 xtb: 6.4.1 (79825abcba525fcdf90b791dcacef51065a7a4e7)
C         1.22736405456165   -0.74662478661803    0.89352210265209
C         2.13260964048259    0.21030992412490    0.11669638919432
O         1.41119017954820    0.92819328230505   -0.89551402887013
C         1.66660506068626    2.15901289466311   -1.40511843407479
N         1.49407737222409    3.28973902148776   -0.81638911148897
C         2.01431996519973    2.10674015606361   -2.93622093748041
C         3.38989739808506    2.76229852116676   -3.23946994058891
C         0.91032717136595    2.45985188101941   -3.96165177949505
C         0.61551364765991    0.94894450331008   -3.97720775421451
N         1.93542485802920    0.69203584619707   -3.42222213026740
C         2.23699588326728   -0.55933182805429   -2.85686553551298
N         1.49886045066127   -1.62203122013939   -2.92867747425836
C         3.49018926544867   -0.73030152901531   -2.01923172320539
C         3.25844488696305   -0.59544215472617   -0.55024754793889
N         4.10992447794543   -1.19572586650312    0.22703515936876
O         4.00879884602100   -0.98383464223163    1.59531756139316
H         0.43831782114593   -0.18705964965270    1.40836485372584
H         1.82658430797630   -1.26465549638331    1.64776013126245
H         0.83755715641610   -1.45006572747483    0.14960590224706
H         2.67342192163579    0.86537174177046    0.80914561238280
H         1.18241074903606    3.17990569536966    0.15855454924182
H         3.96598289151333    2.75125522209301   -2.30506522302584
H         3.22924211087657    3.80721192190880   -3.53071678529699
H         3.96434153787259    2.12427922467536   -3.91637516236913
H         1.43165393349835    2.81440060661850   -4.85335472570901
H         0.00847061574086    3.03516512498480   -3.71474279881482
H         0.37358606528409    0.53128964564476   -4.96419176656401
H        -0.15139830133676    0.54078380881003   -3.31807302678622
H         0.68058386533689   -1.67836220114241   -3.53063931997225
H         4.32294473982109   -0.17685189307523   -2.47599959689167
H         3.80990964902925   -1.77586957082877   -2.06230222154749
H         4.53289297387357   -1.73137981812734    1.94202331328115
