32
 energy: -49.292444524399 gnorm: 0.127748824196 xtb: 6.4.1 (79825abcba525fcdf90b791dcacef51065a7a4e7)
C         0.83697912734381   -1.29611329042430    0.11203811073069
C         1.73891442991220   -0.06469610098435    0.20571959511350
O         1.20849827089808    1.00622151124837   -0.58936949406885
C         1.99669447925996    1.91932867642270   -1.20971808169800
N         2.54377902893382    2.93286910013444   -0.63670507325231
C         2.14932705185722    1.93149061039119   -2.77319764727993
C         3.50672539205997    2.42007773045275   -3.34998388796570
C         0.86695886943633    2.46551602381658   -3.45535973013139
C         0.65125331187794    1.06603890153889   -4.05945657442078
N         1.82962125866194    0.58786185522397   -3.35307681363638
C         2.05344655934235   -0.68363825004293   -2.79658431220800
N         1.32702557140334   -1.69638242045019   -3.15153875565512
C         3.14427896611414   -1.02050688490154   -1.79760541534565
C         3.09199069994618   -0.40896762470022   -0.43632195300063
N         4.22967140567128   -0.28995314319670    0.18096613745299
O         4.31798580877627    0.25033849873537    1.45674296624518
H        -0.15190488376457   -1.06476368445153    0.52356688694490
H         1.33784365742149   -2.09294256831860    0.66925759879624
H         0.75360012801962   -1.51464510442974   -0.95823366685577
H         1.89168949679241    0.29400719832142    1.22995665415441
H         2.40837277567207    3.05479525912617    0.37646507098734
H         4.28759909637062    1.68989554834263   -3.10062699031806
H         3.72862761534557    3.40224070683445   -2.91570960615359
H         3.35763408226385    2.53734067927369   -4.42668094627025
H         0.99972899492522    3.34199401729886   -4.09315197913846
H         0.07143045936588    2.56234842649482   -2.70499137712080
H         0.72970841823038    0.99555545394039   -5.15306475281553
H        -0.24381023731392    0.57613512454649   -3.67466675696224
H         0.61382558090010   -1.39834527722854   -3.81307292441494
H         4.17091754694378   -0.87734710519307   -2.16358842932855
H         3.10115046403936   -2.11118315272962   -1.72109449993821
H         5.24081973214728    0.51009157596411    1.64277847213782
