32
 energy: -49.290005694796 gnorm: 0.120661238179 xtb: 6.4.1 (79825abcba525fcdf90b791dcacef51065a7a4e7)
C         2.16735784249893   -0.46528657118883    1.43225829116098
C         2.49046781642588    0.38852127150428    0.20536630500158
O         1.25081738516078    1.08224662595927   -0.00050851745377
C         0.98906647114183    1.81528842505297   -1.11135797050131
N        -0.00457247249504    2.62674234565905   -1.01578714312668
C         1.95514039976747    1.88476357041886   -2.34820368024458
C         3.37273117548399    2.38192174771796   -1.95171896268712
C         1.35094617872978    2.62380543232210   -3.56630173330760
C         1.66357727771471    1.37396334752618   -4.40900848119199
N         2.05046670433143    0.65837618121837   -3.20301168191229
C         1.80133202430215   -0.72263509117221   -3.11795876521699
N         1.65739370655714   -1.48314877057519   -4.15730066280234
C         1.77757564068169   -1.25141265397079   -1.69627502964029
C         2.86450002856001   -0.63219463237064   -0.88081720272919
N         4.05771689768496   -1.14406159334764   -0.81956225045032
O         4.97672723276256   -0.56342976301936    0.04392353633403
H         3.00653913233205   -1.11609795928459    1.70242391861382
H         1.29531406476009   -0.98770875572899    1.02863662233671
H         1.82047248567129    0.05596841655832    2.33123197204396
H         3.33744466256653    1.07210356555065    0.33348856261386
H        -0.43209440646503    2.67936600550390   -0.08081637790062
H         3.96143025602581    2.66340024748385   -2.83450538520710
H         3.93811800302235    1.63802774483790   -1.37775179922832
H         3.25122607962757    3.28162595891078   -1.34260139188213
H         1.93110920118605    3.52530751443120   -3.77444927448552
H         0.32660894611709    2.91183346036282   -3.29599131752201
H         2.47215024194278    1.55288859993918   -5.13101782375782
H         0.76945646401661    1.02949865136351   -4.92968085270913
H         1.87196372535201   -1.03737825909688   -5.04632044864090
H         1.91172676856676   -2.33974579945026   -1.77347304815693
H         0.75824043471096   -0.97128812762578   -1.41383084749402
H         5.67940638562802   -1.24006941017166    0.08979422102360
