32
 energy: -49.287633592794 gnorm: 0.110017532095 xtb: 6.4.1 (79825abcba525fcdf90b791dcacef51065a7a4e7)
C         2.32982151187870   -0.80807599105077    1.37644975243578
C         2.57934128218253    0.04707956482337    0.13342896972863
O         1.32198188244391    0.71298869284537   -0.05626775823933
C         0.92708272890715    1.53307680347857   -1.06193194921629
N        -0.29972330604642    1.89871863504428   -1.18906416822238
C         1.91952018343646    2.16748315703866   -2.10140750692900
C         3.28376749288264    2.77148122697199   -1.66788058932534
C         1.18007442984871    3.07408797939631   -3.11446430367685
C         1.53894640518647    2.02175397643157   -4.17926576768132
N         2.09413339676738    1.13282670131145   -3.17042861090222
C         1.88181590343945   -0.25378980075687   -3.26375692780018
N         1.56898706197014   -0.91443548919714   -4.33381125523342
C         2.02415589808251   -1.15383920678089   -2.05090694123318
C         3.06887934647970   -0.81886592972673   -1.03791491815794
N         4.17352781293460   -1.50381030697604   -1.02653999784527
O         5.04721812921679   -1.36000841639826    0.04271547195479
H         3.18313583435817   -0.63903866889131    2.04282143060691
H         2.08586976420818   -1.84534938968585    1.12977755337618
H         1.42011180251820   -0.40211898741839    1.83231930112471
H         3.33658065326451    0.78833918431037    0.41305826846404
H        -1.02140870050167    1.42927211126551   -0.62470193131839
H         3.27458068605180    3.39099294098028   -0.76166347937313
H         3.62213859107828    3.37186670659370   -2.52082908585132
H         4.10582906010635    2.06801911503424   -1.51100102053239
H         1.68222317424062    4.03763816493250   -3.22418309978070
H         0.12460066202044    3.08253711642063   -2.81247362674101
H         2.18822191310923    2.41629844225574   -4.97291427661837
H         0.63258083230654    1.59227225762566   -4.60734821417806
H         1.30508067982290   -0.31336657734099   -5.11109975164782
H         2.26122953679464   -2.17909910351215   -2.36881151973110
H         1.10560703550905   -1.18025902004403   -1.45688783510620
H         5.90784739943520   -1.63504230710921   -0.32792848247569
