32
 energy: -49.283361495705 gnorm: 0.133595070826 xtb: 6.4.1 (79825abcba525fcdf90b791dcacef51065a7a4e7)
C         2.05165585793398   -1.09068813669250    1.16284972396823
C         2.26790881158799   -0.01874355216748    0.09382152133222
O         1.01772739200752    0.63874784091152   -0.16137252716162
C         1.02326341458200    1.79395414434447   -0.87222982666637
N         0.37515992662059    2.84622389518769   -0.51501860182480
C         1.93812514817257    1.94158570179210   -2.14075098070789
C         3.41175537272377    2.29320572539128   -1.79621167784177
C         1.27159513914990    2.87990102118895   -3.17530331199568
C         1.08282532184528    1.69922580900007   -4.14503013123463
N         1.84752821154434    0.89277261774706   -3.20639312562122
C         2.05819409419394   -0.49459409418028   -3.29199519138469
N         1.97327030389502   -1.06823935550188   -4.45089551402145
C         2.20756142254087   -1.47713319314392   -2.14584466009110
C         2.94994445627005   -0.76103416038508   -1.06608696908288
N         4.21687236375310   -1.02229012578414   -0.93894350350065
O         4.90492220176453   -0.30278324626447    0.02864023805775
H         2.88023237351216   -1.52882504241300    1.73053552883384
H         1.55890981241519   -1.97738088156207    0.75385944486308
H         1.45458915715877   -0.55628144079027    1.90991781483268
H         2.88506373436605    0.81241197266345    0.45350214296805
H        -0.01726681311085    2.82058564431825    0.43632703639076
H         3.35420307438231    3.26425483637409   -1.28742883013485
H         4.04057717145965    2.32359580506860   -2.69406380969510
H         3.85839121883399    1.51117030453275   -1.17637912298973
H         1.91675147130375    3.61635900043983   -3.65906305509440
H         0.34943122758554    3.36044250461275   -2.82318368173618
H         1.55934415731071    1.95059375479010   -5.10255084957870
H         0.02886698277021    1.44120663985887   -4.25368370810599
H         1.76750365209582   -0.48084746895903   -5.25571765572504
H         2.72165337988536   -2.38376568653578   -2.49534726678874
H         1.19050232893059   -1.61378220451004   -1.76609924685985
H         5.79746439239633   -0.68437955604156   -0.07839255378235
