32
 energy: -49.284206224938 gnorm: 0.132858004622 xtb: 6.4.1 (79825abcba525fcdf90b791dcacef51065a7a4e7)
C         2.02553939468129   -0.52073555311187    1.46342472212186
C         2.44571396486489    0.34857556044168    0.27750594958596
O         1.26075060367060    1.11091348783088    0.00350739652302
C         1.03671177679532    1.82581436407411   -1.12723291806668
N        -0.09000555619834    2.43354990861174   -1.25402075765981
C         2.06008071848253    1.90259404070197   -2.31665875824197
C         3.53632355683622    2.27203720577669   -2.00337167167954
C         1.40079792917436    2.70089401335312   -3.46690210316635
C         1.66080159369157    1.47984412167919   -4.36769806170904
N         1.91830693710318    0.68465818712081   -3.17709022566598
C         1.73062819992136   -0.70519244252686   -3.07918142468275
N         1.36821879076593   -1.36010921132749   -4.13704451501685
C         1.94542299609564   -1.31063051069029   -1.70489519403073
C         2.92482794873782   -0.54731803926228   -0.87548151531068
N         4.12388394370893   -1.04729641701252   -0.83290464914473
O         5.04941037306439   -0.57938559272116    0.09001534110557
H         2.85007603711690   -1.09089355660972    1.90595080971788
H         1.27258343836459   -1.29203000174138    1.27779623946934
H         1.67334106603460    0.05140117485949    2.32876037440533
H         3.27271309767315    0.98776884353994    0.60701197392583
H        -0.81923201929391    2.31705602015178   -0.53682307155886
H         4.02608606720424    2.18957212207614   -2.98237157705760
H         4.02415056329643    1.74105015578483   -1.17720194839888
H         3.62671831803376    3.26692010985449   -1.55919584885784
H         1.91951812617652    3.61356674765309   -3.76786450780768
H         0.34544970184674    2.93865918843670   -3.27981263968819
H         2.55011320954848    1.53806263893926   -5.01022232598427
H         0.88216871856276    1.15030620626870   -5.05642389911381
H         1.18750050508295   -0.79547543501939   -4.96386820781814
H         2.36468859686877   -2.26822420945602   -2.04497718529199
H         1.00407158105506   -1.32183405068900   -1.14720288279233
H         5.92819664449110   -0.69181069962512   -0.32083573552495
