32
 energy: -49.288995361401 gnorm: 0.124931715419 xtb: 6.4.1 (79825abcba525fcdf90b791dcacef51065a7a4e7)
C         2.20404101893536   -0.35114231958529    1.53095473574999
C         2.55362980674189    0.41812014750463    0.25632744087036
O         1.48490046024479    1.37195785428087    0.16476503559400
C         1.06729780002726    1.60616817520094   -1.10433064070479
N        -0.14670814031852    1.91061863298776   -1.40166727322790
C         2.03900566612733    1.81793953670217   -2.32041024949071
C         3.41197787922981    2.35311257518724   -1.82800078160187
C         1.42821923584224    2.67233238582870   -3.45704967287761
C         1.60126898289983    1.48569324559143   -4.42241977464579
N         2.16594545949132    0.71469011754899   -3.32566486273880
C         1.79036210928260   -0.61983768951793   -3.09228348206579
N         1.67168634537381   -1.48203527145549   -4.05242005806343
C         1.60604343128068   -1.07351246383000   -1.65646995336024
C         2.76645074995733   -0.67011970008134   -0.80762597138097
N         3.96323277931504   -1.15907509330936   -0.94239167721001
O         4.94557987677330   -0.58811450117371   -0.14469550116520
H         2.80279998761854   -1.24834040618084    1.72406985283468
H         1.14813031857098   -0.52007044226776    1.30114694543328
H         2.15439695926791    0.25362949759808    2.44308214013790
H         3.52177869828774    0.89825749129753    0.43860656335634
H        -0.82113719614583    1.92981897817462   -0.62417684001542
H         4.08040076611020    1.61712549353507   -1.36255210414470
H         3.21895571479639    3.13901379006859   -1.08801390483693
H         3.97292829884293    2.74008108470224   -2.68289572385961
H         2.00660291499261    3.58361961723435   -3.62332784472008
H         0.39473727544224    2.93968403463578   -3.20066566705607
H         2.34209643310253    1.57642328194573   -5.22867328465523
H         0.74070989352882    1.00430842661361   -4.88816045519563
H         1.85738865380537   -1.04450773416987   -4.95197112752385
H         1.42060923473611   -2.15653860087948   -1.68953972166978
H         0.70156686919737   -0.62932338405809   -1.22996448981764
H         5.81268233737474   -0.79310929722952   -0.54446265514058
