32
 energy: -49.287582900745 gnorm: 0.123141838454 xtb: 6.4.1 (79825abcba525fcdf90b791dcacef51065a7a4e7)
C         1.94674443268584   -0.97671973823973    1.40825147852307
C         2.43192632857881   -0.11385483518600    0.24261238828569
O         1.31876387327040    0.76741925980741    0.03143048766961
C         1.01045710817442    1.68872101404729   -0.91514245395449
N        -0.05104506210105    2.39190503039920   -0.73168950384171
C         1.91344952144628    2.02889599534885   -2.15481927980296
C         3.32300213128870    2.58609984607358   -1.81332946886913
C         1.22839676326494    2.97396205510970   -3.17096359258709
C         1.55555972012442    1.92936861630111   -4.25345472410176
N         1.84604125811086    0.96326524007330   -3.20538916098560
C         1.94259455687671   -0.43867562511785   -3.24702416959779
N         1.84155494027670   -1.06068102938715   -4.37938062975651
C         1.99878811004530   -1.35364031107621   -2.03829069687214
C         2.94808250850588   -0.86762183572560   -0.99309539719520
N         4.21190848237951   -1.12895368335682   -1.14793728355369
O         5.10094988396957   -0.62808707636067   -0.20663018886682
H         2.76096503437704   -1.63817465053823    1.72494118850239
H         1.12134687169258   -1.58025220755541    1.01996916056750
H         1.58761190386720   -0.43651841294198    2.29108568693239
H         3.23134487692370    0.50601864351957    0.66422440548781
H        -0.54549790068919    2.10530433853350    0.12451784373366
H         3.53841863296216    2.74958983397351   -0.74938615708684
H         3.53332997520573    3.50266794999799   -2.37737199096222
H         4.07715278269682    1.84244427676431   -2.08441720080751
H         1.71771736394400    3.94982958613899   -3.20043302321690
H         0.14920043426300    3.06113582968813   -2.98922023709378
H         2.27935253708893    2.15809610726595   -5.04775294354084
H         0.77304813292503    1.48302842313277   -4.86799823285578
H         1.73097638530642   -0.55729899907441   -5.25658455856015
H         2.33702851717063   -2.31103818482567   -2.45948878183335
H         0.97930621990993   -1.47833921209544   -1.66093731271941
H         5.95436426657848   -1.07798728101995   -0.35821191612529
