32
 energy: -49.285639914846 gnorm: 0.121061222685 xtb: 6.4.1 (79825abcba525fcdf90b791dcacef51065a7a4e7)
C         2.04634789512296   -0.99764056621702    1.24205318139617
C         2.47894457343345    0.06235650941480    0.22819021834961
O         1.32712199252629    0.88977867076570    0.00671838948170
C         0.87250783497084    1.64863784048401   -1.02153695351217
N        -0.30477139121653    2.16703131747052   -1.00770121777292
C         1.87501638458152    2.02604585206362   -2.17064651195836
C         3.32077322767131    2.28287109168845   -1.66294782655725
C         1.33079655345873    3.04125445316127   -3.20417090864032
C         1.36508729375880    1.92084758199811   -4.25940106843524
N         1.86393957556378    0.99346965321293   -3.25576106142561
C         1.74062720756173   -0.40675995531279   -3.23035786216067
N         1.41861918651952   -1.07832266792361   -4.29085078334583
C         2.34068611931095   -1.23028478598906   -2.10648472064527
C         3.12091477146332   -0.64208084750784   -0.97729635165279
N         4.35466974632891   -1.05112433503304   -0.96964729402926
O         5.28477158550780   -0.62357902355102   -0.03186449148718
H         2.82679443737588   -1.75904999966160    1.35127327264295
H         1.08556634654646   -1.44839531162963    0.97745026385069
H         1.82074928281456   -0.53502476579920    2.20915285234716
H         3.21111040546509    0.75665981594192    0.65591202301919
H        -0.80939107106410    1.89257139719424   -0.15344989664722
H         3.26270476668869    2.61029093875934   -0.61674855119690
H         3.87050392482610    2.99006465653720   -2.29552373731630
H         3.88144695526565    1.34609613012426   -1.60504257867296
H         2.10554030054680    3.78584057090876   -3.39906620801143
H         0.44962965667153    3.62261969658355   -2.90275096591286
H         1.99818976837461    2.21811977632307   -5.10669822374497
H         0.36322380517692    1.65167331714689   -4.59558916804841
H         1.02311738679445   -0.64921389643584   -5.12424853031928
H         3.06963101357563   -1.86377639806011   -2.63160642758190
H         1.53670639781296   -1.82391580043555   -1.66094287092307
H         5.98970619335932   -1.29939765145493   -0.03816550914303
