32
 energy: -49.284609103021 gnorm: 0.132745256600 xtb: 6.4.1 (79825abcba525fcdf90b791dcacef51065a7a4e7)
C         1.01216656427131   -1.03927389520828    0.28659884358556
C         1.93960041004094    0.16482536141943    0.11729652685148
O         1.21403480593084    0.89048832105311   -0.88636693817831
C         1.92555582411532    1.96743253513667   -1.30323546129655
N         2.50885772837247    2.75625118426196   -0.47110948568356
C         2.08092967763146    2.02434415160497   -2.86545600434145
C         3.47829929435828    2.60743666145976   -3.21372497196351
C         0.90466244029816    2.40687929774059   -3.79554129293787
C         0.38372444322967    0.95826153027279   -3.80686695734342
N         1.72162324481940    0.64590121063616   -3.32870953487464
C         2.04338271946667   -0.60881877281957   -2.78222730494265
N         1.33385272769979   -1.68340909420933   -2.92767042840506
C         3.34452093711382   -0.70308880428989   -2.00794879835574
C         3.21851239967521   -0.34818729562289   -0.56296651196582
N         4.20881386294766   -0.69534022209061    0.20404998752382
O         4.11011233056203   -0.24451405831087    1.51337607429313
H        -0.00705715024183   -0.71770463755158    0.52856247348090
H         1.40465103958943   -1.76756969678645    1.00202661680328
H         0.99323086397102   -1.57221417135420   -0.67037868744098
H         2.23472465217371    0.65106613073614    1.05406834690541
H         2.25589085175894    2.49129008323945    0.49092895663130
H         4.19076005837536    2.52230823592592   -2.38290523846626
H         3.41371796573377    3.66535072004800   -3.49501833232172
H         3.77963842723344    2.06448163377358   -4.11353047255298
H         1.23611494511267    2.70377085298291   -4.79284524613797
H         0.22153915083164    3.19710573713731   -3.45763691341115
H         0.20831608193782    0.53099650708060   -4.80375134484301
H        -0.41715394584651    0.77189820609452   -3.09057777746527
H         0.51652495690071   -1.54907943266483   -3.51846538238819
H         3.99806465579812    0.08360947927358   -2.41095191148326
H         3.82130948548408   -1.68774863327967   -2.02810855130264
H         4.92071686228395   -0.55760109163439    1.95902181487663
