32
 energy: -49.291849691357 gnorm: 0.118285040661 xtb: 6.4.1 (79825abcba525fcdf90b791dcacef51065a7a4e7)
C         2.21585600545714   -0.70711981188825    1.51702212400304
C         2.42361139565786   -0.01969893567715    0.16685841631368
O         1.14921323101991    0.54262162254205   -0.17966344759373
C         0.99729642168348    1.65583219376125   -0.93961991304104
N        -0.03937673801361    2.39722947939203   -0.76483884403527
C         1.92898766935288    2.02824403878033   -2.14841012420061
C         3.34776253152446    2.49899192250560   -1.72484866852515
C         1.17830672670516    2.95947095015285   -3.13039330042279
C         1.34545429210775    1.84354308975346   -4.17765869407311
N         2.08030340287721    1.01124651754679   -3.23773534767155
C         1.98014247985270   -0.38882468140494   -3.31687214941361
N         1.98063718516590   -1.12392853789689   -4.38408953563772
C         1.89753094405444   -1.25556728831837   -2.07458100359341
C         2.88737545935825   -0.87316707391103   -1.02396930651627
N         4.11180583773619   -1.30427986029339   -1.09059098344796
O         5.07351282673506   -0.79806990801151   -0.22676682999322
H         3.08618106077471   -1.29976639590105    1.82045990086072
H         1.40005208221011   -1.42095478851176    1.37142226670893
H         1.91893690128231   -0.08832201952310    2.37090632017956
H         3.19052580560819    0.75730836301724    0.26262785273304
H        -0.56965669234883    2.03604534499034    0.04018524232837
H         3.24437312673735    3.28309082855717   -0.96352865796780
H         3.92434623071823    3.02864161161892   -2.49263854833479
H         3.98811783848496    1.68357461636576   -1.37801288153578
H         1.74671284913974    3.87291974686264   -3.31786679220047
H         0.19503431373592    3.30536225993488   -2.78567719873889
H         1.98719545260107    2.07351476698921   -5.03927536463785
H         0.34741915083719    1.45994052442524   -4.39209424394025
H         1.96112453043629   -0.60756811583052   -5.26050210484296
H         2.05594537735328   -2.27952015080545   -2.44180095012934
H         0.89622494094179   -1.20456304869749   -1.63631901345392
H         5.93368310798259   -0.94965908313412   -0.66360905764376
