32
 energy: -49.292554115142 gnorm: 0.125766509654 xtb: 6.4.1 (79825abcba525fcdf90b791dcacef51065a7a4e7)
C         1.14029845736500   -0.85953846616467    0.62694489043252
C         1.99892573920081    0.31863443874337    0.16507950626107
O         1.20952603039405    0.94980058980779   -0.85416036650133
C         1.89976420691412    2.01264700504388   -1.33766748438736
N         2.25856953400205    3.09157913833621   -0.73594178429916
C         2.12134122385387    1.97286583561527   -2.89241315574340
C         3.43675830718839    2.70350439034780   -3.27942117471587
C         0.87902475380520    2.42156992058744   -3.69883168818924
C         0.63951130263503    0.96164245276492   -4.12455836024763
N         1.84607922325837    0.59116871957900   -3.40128818068235
C         2.06591658834049   -0.66992188994773   -2.82006858422606
N         1.40819357550730   -1.74570307741610   -3.11911062630922
C         3.26288907443094   -0.83220949054670   -1.90231355650502
C         3.19132934658939   -0.41297485051893   -0.47090566795658
N         4.02251212251393   -1.01923821304854    0.32351637036596
O         4.05154426430368   -0.57211410342696    1.63750198157635
H         0.19674468547737   -0.58340121717155    1.11091251909598
H         1.75137397266197   -1.51722783659841    1.25170656094824
H         0.82732674131555   -1.35798562807977   -0.29706215859701
H         2.25811934937886    1.04690602155910    0.94193793632760
H         1.97216817640565    3.15084673857350    0.25106186515350
H         4.35731811956648    2.14788137983177   -3.05814912018344
H         3.44245306378846    3.61053938075691   -2.66319559778467
H         3.37944933700444    3.01214294098162   -4.32666197853436
H         1.04066912112251    3.05146685856447   -4.57616941165545
H         0.09431180288116    2.78340867933105   -3.02163678985906
H         0.76657245743542    0.71640722398551   -5.18795721340516
H        -0.24123469558819    0.44206087480973   -3.74570595629817
H         0.68407645898039   -1.60470077725591   -3.81973932435566
H         4.06785524481373   -0.20137621897747   -2.30543132588804
H         3.51673436406711   -1.89228776969005   -1.99763054708072
H         4.82799317539015   -1.09157083206475    1.92209839733688
