32
 energy: -49.290953194610 gnorm: 0.124996207528 xtb: 6.4.1 (79825abcba525fcdf90b791dcacef51065a7a4e7)
C         2.37088207214315   -0.36664306258044    1.65345659769970
C         2.51097344835632    0.31667216253458    0.29253539008495
O         1.26865136842867    0.96981876706301   -0.00814362875891
C         1.03034429158455    1.70118675522340   -1.12535486518617
N        -0.08428766388061    2.32142974169089   -1.29209977530878
C         1.99118971458086    1.91896017662161   -2.34898217731355
C         3.41526450610582    2.43017185234425   -1.99598982123526
C         1.41438660344405    2.80599950358657   -3.47834297846443
C         1.48899428604999    1.58975814485476   -4.41918768072717
N         1.79168012914656    0.75319664525109   -3.26822164061983
C         1.81144467478302   -0.64659365807472   -3.13902918840050
N         1.91895905851302   -1.46203909146671   -4.14043833423123
C         1.72357135094047   -1.19481715709790   -1.72726292217910
C         2.80756103534168   -0.68114791958740   -0.83792759266010
N         3.94136662061555   -1.31495142610377   -0.78992273738809
O         4.91334919248109   -0.77900662504130    0.04394420274097
H         3.40304220480009   -0.52357845518509    1.98630327293759
H         1.67899129394671   -1.21156641261203    1.59273247068106
H         1.98971104348001    0.40452240274463    2.33183876536213
H         3.35901394435247    1.00410520989849    0.38914268403192
H        -0.79990798216470    2.05096666068821   -0.60329510523997
H         3.95023529816191    1.92028513627904   -1.18424453851555
H         3.32047532386478    3.50043680629422   -1.77683964019502
H         4.05228033599664    2.48216478745796   -2.88298640309821
H         2.07489918129544    3.63427495890673   -3.74349094165442
H         0.44392941065576    3.27288769796458   -3.26498206149124
H         2.26886438681588    1.57622384197560   -5.19295859162250
H         0.48703477098303    1.38605837158401   -4.79838579160176
H         1.93294165378291   -1.04794023009253   -5.06965006466021
H         1.74978049416304   -2.29091829448758   -1.80663842969266
H         0.72529841470421   -0.98535380744925   -1.33120109500426
H         5.72541400755900   -1.31302556853501   -0.05133342933155
