32
 energy: -49.289261789435 gnorm: 0.124109489542 xtb: 6.4.1 (79825abcba525fcdf90b791dcacef51065a7a4e7)
C         1.92285471956190   -1.10555331979119    1.22298422582317
C         2.30117080326032   -0.09339607320996    0.14082597916800
O         1.08605480601078    0.55516231877287   -0.26320079603065
C         1.09510988403936    1.76517522213356   -0.87609322399169
N         0.15261800686471    2.62341604341885   -0.70276875981801
C         2.04321819438628    1.98799145449871   -2.10871503840465
C         3.55587441685730    2.23129844534692   -1.85063975364817
C         1.46349072130145    3.01567692100035   -3.11010160073167
C         1.12833183978531    1.80832246043951   -4.00450745608035
N         1.78162130040697    0.88584939081038   -3.08884758275426
C         1.87195000726211   -0.51088250444699   -3.22104040670982
N         1.72924241264817   -1.05068231840326   -4.39047684412351
C         2.13736289428513   -1.44575358793503   -2.05616841384642
C         3.00570340375003   -0.78385474897244   -1.03750177191023
N         4.29964851882348   -0.90586712777131   -1.05608843921689
O         4.96424536869716   -0.19018212082957   -0.06946438694808
H         2.80720289077880   -1.62362106881019    1.61067519030077
H         1.36130536245320   -1.93332363886151    0.78054286935155
H         1.40033242153997   -0.65273672770232    2.07275917952783
H         2.98432271705212    0.61567808203821    0.62206100579215
H        -0.61027769013623    2.40785174422341   -0.04608255330913
H         3.71255232318126    3.27779174380034   -1.55838569963589
H         3.96688129773176    2.30020723340824   -2.86493940761723
H         4.17011540572677    1.53796698007956   -1.26990328377202
H         2.24478799355919    3.68025132151229   -3.48498288243381
H         0.67044278065196    3.53789354606538   -2.55904861305507
H         1.63601630992223    1.92430398131716   -4.97193018590924
H         0.06992132983198    1.57476958693414   -4.12462373968815
H         1.44699177073087   -0.45806910569257   -5.16781330600792
H         2.68037025663572   -2.25110400736733   -2.57092933079408
H         1.15516735433694   -1.84094367945407   -1.77975309251322
H         5.92678968192260   -0.31263918091623   -0.17999056691590
