32
 energy: -49.290239552713 gnorm: 0.119616329492 xtb: 6.4.1 (79825abcba525fcdf90b791dcacef51065a7a4e7)
C         1.80914813621595   -1.16295847401647    1.16709665047717
C         2.27400011423120   -0.08901429881204    0.18261284053268
O         1.05631204208989    0.53975195452701   -0.24430785098611
C         1.15832855100146    1.75060965222373   -0.84702388915370
N         0.52798923478964    2.73916891728962   -0.31755949334456
C         1.97046121421868    1.96638221653282   -2.17435042065684
C         3.45466390665221    2.39661044175011   -2.01317955578204
C         1.21780688487717    2.86794412673862   -3.18216687261398
C         1.08846506779389    1.70042629068225   -4.17724018790482
N         1.77482184069864    0.88232453727633   -3.18941399145714
C         2.00147745398690   -0.49414959721835   -3.36388578470063
N         1.68600402192707   -1.13433342531825   -4.44553825201089
C         2.40721622884426   -1.34714144900985   -2.17681558780978
C         3.04716811675198   -0.65418097491425   -1.01919976092731
N         4.33732371025426   -0.80289788274681   -0.96527128307971
O         4.86000445917056   -0.25438437351103    0.19802523615519
H         2.69576475918302   -1.67239373989214    1.56099617985475
H         1.09471632254513   -1.87279572310922    0.74046566393482
H         1.41296979151428   -0.63645711706076    2.04232743905507
H         2.83275348196291    0.70323282665297    0.69369895419402
H         0.02132281239128    2.44317286888872    0.52824785357861
H         3.54604618073284    3.24069800005516   -1.31728150472669
H         3.93805476638196    2.59147588120801   -2.97797984533071
H         4.04879985267476    1.58682434485560   -1.58131808757215
H         1.82871824912411    3.66631102039341   -3.60880271939498
H         0.25605723824714    3.24900882362148   -2.81457750142125
H         1.67181485271879    1.65060019980233   -5.10692958196043
H         0.08399394951407    1.29085908414452   -4.28904427857755
H         1.49672302682518   -0.50819494442072   -5.22478861673368
H         2.97433391021234   -2.22341121797109   -2.52171254931039
H         1.43988057619931   -1.78831388511945   -1.91813171462027
H         5.83500105512702   -0.27521979255419    0.14653886175146
