32
 energy: -49.282227109296 gnorm: 0.133918466387 xtb: 6.4.1 (79825abcba525fcdf90b791dcacef51065a7a4e7)
C         2.31824769935287   -0.38806240077841    1.58066512271192
C         2.45133878321959    0.24637964394885    0.19559405339373
O         1.17051496381924    0.83614313064732   -0.07281210274644
C         1.01651600361768    1.65042385691398   -1.14662844711622
N        -0.19601438625075    2.03368985943125   -1.34101679766349
C         2.05891107084905    1.99827531626387   -2.26927034470677
C         3.41567549154558    2.48839158225092   -1.69228999262341
C         1.53225714245337    2.87456334628224   -3.43105832782226
C         1.56442029716488    1.62482881191519   -4.32946092534776
N         2.16332057816978    0.86493684168807   -3.24315556246899
C         1.80531969454726   -0.48893567309729   -3.11922499417086
N         1.52358267098260   -1.15755890393052   -4.19295591699573
C         1.82102167243900   -1.28002217346462   -1.82489494794000
C         2.82498545111675   -0.86130830108959   -0.80188838309489
N         4.02544506207690   -1.35535019575089   -0.86781072704810
O         4.97893639353001   -0.69946292672542   -0.10100750080959
H         3.25218160131264   -0.92658229161574    1.77696580264542
H         1.39466962892152   -0.97061001847136    1.64341505492389
H         2.21723846712031    0.43910798200006    2.29184455422163
H         3.21089240150118    1.03533007894503    0.15429820878207
H        -0.74193783148408    1.57454235109319   -0.59881348912215
H         3.32286094648101    3.58009342184627   -1.62387087757887
H         4.14869741974809    2.30443553915674   -2.48684514211665
H         3.79211478775625    2.18633623306373   -0.71131528405191
H         2.24278086994862    3.67311568475502   -3.65486790962427
H         0.54511198974984    3.29028721249612   -3.19019998584152
H         2.04230320474107    1.93682952545677   -5.26828223385615
H         0.54275825033674    1.29880160667804   -4.52725020604468
H         1.37690847498181   -0.67753503361973   -5.07792573510672
H         2.01412505223915   -2.32935911174757   -2.08952327940127
H         0.83367879538569   -1.31914638138656   -1.35488213482855
H         5.74484349621583   -1.30095510770777   -0.17378654697633
