32
 energy: -49.289699606900 gnorm: 0.114013367355 xtb: 6.4.1 (79825abcba525fcdf90b791dcacef51065a7a4e7)
C         2.10811512882656   -0.39661196647261    1.55648754838462
C         2.36146097682014    0.36527579337132    0.25495201925949
O         1.16463025790773    1.11632694653240    0.00218557125035
C         0.97704916792780    1.88061813017820   -1.10258708991923
N        -0.05900423719892    2.63338607480403   -1.22442038049125
C         2.00682221848391    1.87744653549262   -2.28895564014173
C         3.42456218092193    2.31110497502564   -1.82432272286515
C         1.34505314331722    2.67645856645843   -3.43727522606943
C         1.48872754037696    1.42232249217105   -4.31846673723821
N         2.15278145079855    0.72146567342933   -3.23034503788582
C         1.97815907882298   -0.67025001854824   -3.13480088708231
N         1.92450078507858   -1.52962515543453   -4.10326670347299
C         1.79771095697177   -1.21830920435295   -1.73179542543701
C         2.82359185539360   -0.63289678526270   -0.81819391125911
N         3.96462675071756   -1.24706490115261   -0.91999436458334
O         5.03496048270198   -0.72776588634823   -0.20442797739156
H         3.04779566564708   -0.87431574372924    1.85576960952009
H         1.32269761561847   -1.13931148882907    1.38971679762717
H         1.68107581364953    0.22135774431995    2.35394647994601
H         3.16179355708746    1.10515527269404    0.36947693730417
H        -0.68203237342413    2.76064112953342   -0.41487935435314
H         3.93972394550468    2.87692535422603   -2.61144677651352
H         4.11439548764938    1.46685896536397   -1.70660466528064
H         3.34721928074885    3.09627062668625   -1.06749490550994
H         1.88323831941793    3.55040606791466   -3.81036102692742
H         0.32144530715669    2.94014384904285   -3.14064127254662
H         2.22968076376361    1.51663144641924   -5.12419381479855
H         0.55281791111204    0.95915012748867   -4.63271537218637
H         2.19732793574270   -1.08287432434408   -4.97566962924161
H         1.90739675634186   -2.30995103890724   -1.80044107705507
H         0.77971886009532   -1.11032306926430   -1.34537621817819
H         5.79426116371892   -1.11464020358681   -0.68139135324778
