32
 energy: -49.294165699010 gnorm: 0.121501730138 xtb: 6.4.1 (79825abcba525fcdf90b791dcacef51065a7a4e7)
C         2.27882191433085   -0.76286459595770    1.46548403758557
C         2.48149113823051    0.11426360908017    0.22927082770885
O         1.21047482262193    0.76401341476806    0.07855522134543
C         0.83405397968085    1.52210679425987   -0.98137501102488
N        -0.29073313131713    2.14596020171770   -1.00525984146318
C         1.84114435884195    1.90114215722971   -2.12593349187986
C         3.33875988572778    2.16826958850233   -1.81014768754320
C         1.33327587215078    2.98167140197527   -3.11057685631517
C         1.34421920039118    1.93540398731674   -4.23982565166374
N         1.90190522443625    0.97421525099278   -3.30106093532752
C         1.86944547303896   -0.43107679561074   -3.32545035571643
N         1.82125266575458   -1.08098296959780   -4.44555315917460
C         2.06255594051899   -1.18754720169371   -2.02475224989771
C         3.00398950665572   -0.64408649216032   -1.00095524655262
N         4.25277403768564   -0.99648511187516   -1.07762879031356
O         5.06693612950608   -0.67181084465325   -0.00103800322546
H         3.22497835131547   -1.25534165644862    1.71653085125346
H         1.50930786856300   -1.52092153922543    1.29374721741492
H         2.10415693530393   -0.18412849752032    2.37912869466369
H         3.28131180316190    0.83981336202389    0.41617801495329
H        -0.91003747564453    1.87917810745869   -0.22743979060821
H         3.50747184562087    2.80662012135168   -0.93313372399423
H         3.78030166113766    2.55658215390462   -2.73574645490931
H         3.86424050063229    1.21892864829146   -1.67644175552644
H         2.04715804560800    3.80562895237899   -3.17450441604397
H         0.33666383655756    3.33539974722215   -2.81572886464446
H         2.00927814560788    2.26865997581507   -5.04836694057407
H         0.42162998532668    1.67717523620230   -4.76074284409506
H         1.54039965606158   -0.51123880279812   -5.24029902613109
H         2.42128501912413   -2.18232013802649   -2.32502769094854
H         1.02975554214396   -1.17945682494681   -1.66343991690169
H         5.93213434917668   -1.08007645073973   -0.19713634062724
