32
 energy: -49.294060680930 gnorm: 0.131333406790 xtb: 6.4.1 (79825abcba525fcdf90b791dcacef51065a7a4e7)
C         2.21028407760711   -0.96955485880556    1.30551447217660
C         2.44447815646707    0.04713806996382    0.18741768064738
O         1.13865334831392    0.56240291541159   -0.11207554660589
C         0.93394139229604    1.60166753093792   -0.95934904107253
N        -0.18721178851193    2.22920602815881   -1.02354068678882
C         1.94016270133330    2.04119318458827   -2.08284750357372
C         3.34054472183862    2.52455102932563   -1.61463242378560
C         1.45876962705181    2.96458771170726   -3.22766174024106
C         1.51742251975301    1.81391905364776   -4.24870022016514
N         2.00399189597796    0.99282823091357   -3.15086745251826
C         1.79328082177463   -0.39679730603923   -3.11868196564898
N         1.37534039672947   -1.05981635276632   -4.15070057770538
C         1.99207067389315   -1.31303056313951   -1.92605717089220
C         3.01422289910452   -0.77107746506370   -0.98197100461903
N         4.27136022707486   -1.04466699757595   -1.16712211706239
O         5.20735189830631   -0.56108903264859   -0.26302424788398
H         3.10438600059543   -1.58382586889218    1.46050815011887
H         1.41949941224256   -1.64971557292050    0.97636898694060
H         2.02078771111618   -0.51164788841454    2.28255194408424
H         3.06485661130097    0.85499822801555    0.59184612460252
H        -0.87523963326277    1.90744155076832   -0.32870265528838
H         3.19374026267346    3.55172532311160   -1.25620524243052
H         3.90450112436824    2.72672769999118   -2.53308581320327
H         3.92981444951069    1.92732801585650   -0.91367506776738
H         2.10562021168282    3.81650348047368   -3.44776256112196
H         0.46097397548782    3.31055194296220   -2.92764971277224
H         2.30935133128416    1.94185648011141   -4.99942170399358
H         0.51877876589200    1.67248466892802   -4.66332611723583
H         1.34891924892213   -0.51535105342327   -5.00975079865013
H         2.28335588877793   -2.29533965744949   -2.32436213983639
H         0.99787987405733   -1.43864690062047   -1.48663265510498
H         6.04187677168938   -0.97491965637963   -0.55630870598016
