32
 energy: -49.290465547019 gnorm: 0.124157658173 xtb: 6.4.1 (79825abcba525fcdf90b791dcacef51065a7a4e7)
C         2.18241503488694   -1.05633619339455    1.30082948093381
C         2.43928771614160    0.01804125854360    0.24329397869781
O         1.19960987319259    0.69264938579514   -0.01838371376615
C         0.99854281003956    1.64670828977218   -0.96135452946457
N        -0.09630556347362    2.32188621911899   -0.98010016931862
C         1.96842957396037    1.94670599927751   -2.16020146729252
C         3.41147738512172    2.34327368898301   -1.74273640182465
C         1.45957442157192    2.99231638570021   -3.18135852826108
C         1.49280201057516    1.82404248372447   -4.18337156229919
N         2.07189076123513    0.89683179909807   -3.22362510034742
C         1.79245352045977   -0.47928887980282   -3.15506166313198
N         1.65425477886618   -1.20968818230275   -4.21654593588926
C         1.87709829590815   -1.32825956056722   -1.90069378497315
C         2.91694147439700   -0.73414129273611   -1.00875392877857
N         4.18072927030757   -0.95835690388155   -1.21392269473666
O         4.90334562749886   -0.24198374118652   -0.26948840855361
H         2.91345255040630   -1.87207550616384    1.33122170739324
H         1.16229114037989   -1.43173058996176    1.17949514103393
H         2.22352243739506   -0.62557560748707    2.30728136277719
H         3.18285722906925    0.71161167160835    0.65211460073217
H        -0.66914743917537    2.32491492482301   -0.12478876767466
H         3.87532202966012    1.61193288873688   -1.06812733020471
H         3.39738170298413    3.34368572553320   -1.29389797930300
H         3.92480763830997    2.42052398694714   -2.70491092934978
H         2.09718572585222    3.86953739041136   -3.31002734219754
H         0.47234669669432    3.39549632669462   -2.92035665016017
H         2.12030446158990    1.97555606559586   -5.07240828040365
H         0.52079871853946    1.40683576304195   -4.44861830367396
H         1.81350753925865   -0.74797749485682   -5.10905342739649
H         2.12648615983057   -2.31308638352968   -2.32063059123113
H         0.90720711683092   -1.31018942573716   -1.39445935798349
H         5.83630062975968   -0.47284970469507   -0.44269116480778
