32
 energy: -49.281277321480 gnorm: 0.122024883446 xtb: 6.4.1 (79825abcba525fcdf90b791dcacef51065a7a4e7)
C         0.74235579519629   -1.06175115950906    0.16117241617776
C         1.75034181297107    0.08635171842799    0.09427107211398
O         1.13326836602739    0.96055980407489   -0.86246980841308
C         2.06133943859008    1.86721681837912   -1.25808009647248
N         2.62969414202021    2.73674922231244   -0.49926791129574
C         2.25908913523160    1.85957971111684   -2.81652474056927
C         3.40549985797883    2.77463671522087   -3.32871915265885
C         0.91671605696349    2.33868034034496   -3.41942898363770
C         0.74573509073423    0.95412513447069   -4.07040555192792
N         1.98046099291641    0.52323377738027   -3.43325464197337
C         2.05656307761677   -0.71419650246444   -2.77033006238512
N         1.25156531866915   -1.71977103157046   -2.91220800043536
C         3.22180320980971   -0.95739983787937   -1.82989278089834
C         3.11607953409085   -0.30856174154593   -0.48913229877989
N         4.23077860988084   -0.41947483936486    0.17016331316430
O         4.21240307529965    0.03149463544475    1.48302655608706
H         0.57479860323346   -1.43108091704906   -0.85681102244512
H        -0.19182824502114   -0.57702514026219    0.45889141485746
H         0.99585023815162   -1.89099618925382    0.83071191200931
H         1.89893902604958    0.58477262132061    1.05892920677753
H         2.53762276828710    2.54076518057509    0.50712550213325
H         4.26536266886763    2.27021900509384   -3.78840092633008
H         3.78131695726656    3.42185896255697   -2.52725566360611
H         3.03999564546018    3.38131595181841   -4.16154707146198
H         0.98160889265164    3.31857421187769   -3.89715009109864
H         0.18702011339305    2.46724355505383   -2.60929938655344
H         0.80269754943881    0.90373351134374   -5.16645205578790
H        -0.10980144135713    0.33306202212223   -3.80292559564747
H         0.63330054119793   -1.56989931914833   -3.70618215522137
H         4.18144062765817   -0.77880045218131   -2.33548487759558
H         3.02633898430222   -2.00865128327680   -1.59761521652703
H         5.12961148948702   -0.08525801014233    1.79735260983733
