32
 energy: -49.285591507094 gnorm: 0.141153286995 xtb: 6.4.1 (79825abcba525fcdf90b791dcacef51065a7a4e7)
C         0.91077342909693   -0.68919599782217    0.57546323956490
C         1.97913400561427    0.27923411901768    0.06614941739244
O         1.26604934739731    1.20158753701671   -0.77119574113169
C         2.09129663628377    2.12098744797313   -1.33112524368650
N         2.66809555304406    3.07207441866393   -0.68486975376954
C         2.00546659140121    1.98100380612845   -2.89347946701553
C         3.25171199969858    2.59005243420209   -3.59338098759201
C         0.58777947696319    2.23733605164125   -3.45868156446434
C         0.40883490355328    0.75258628856097   -3.82405135040098
N         1.81022969981691    0.60869396673372   -3.46133342385289
C         2.36191974914823   -0.54290236442553   -2.87315134166883
N         1.98642963248589   -1.75270309882499   -3.14650130021790
C         3.57284892275371   -0.39862683703789   -1.97082669906226
C         3.19329271485895   -0.45208577579197   -0.52760593036190
N         4.02815066104089   -1.01204735716330    0.29639749190665
O         3.62702891186331   -1.04202087129786    1.62512769025114
H         0.07508503094370   -0.01918488558381    0.80672104401848
H         1.17443230785669   -1.20530958484091    1.50304422531709
H         0.61397301395125   -1.35783793029686   -0.24002272716938
H         2.36808495943358    0.78325482410980    0.95819768329500
H         2.48294283931677    2.97283193118131    0.32289211527013
H         4.15022401976581    1.97979353990664   -3.43410496729766
H         3.38433920795667    3.55153150018371   -3.08304101112732
H         3.09607260487369    2.53773313203033   -4.67425768724964
H         0.54062577585380    2.94685473058672   -4.28752431277294
H        -0.08264790550836    2.65126571471137   -2.69416604227843
H         0.26399651283736    0.57463022089463   -4.89850723450408
H        -0.28397264816127    0.22777727814666   -3.16541574137201
H         1.25093803570834   -1.81295739300561   -3.84687930195292
H         4.02501865292154    0.56348062002038   -2.25067817130046
H         4.37970125817021   -1.09279928353581   -2.22460338914593
H         4.44083125333909   -1.49645766926546    1.91653165378906
