32
 energy: -49.289858472015 gnorm: 0.119232235098 xtb: 6.4.1 (79825abcba525fcdf90b791dcacef51065a7a4e7)
C         0.67875588214331   -0.79127674651221    0.15457304142400
C         1.76616225665007    0.27945537727433    0.05592259313369
O         1.27288088247258    1.26956514153367   -0.85880613799251
C         2.19947196439250    2.11041306708456   -1.38249890059407
N         3.25695904874864    2.58756741604312   -0.82666221974578
C         1.98403496973785    2.00565451599348   -2.93508563527009
C         3.11597080219002    2.87141272851076   -3.55404767345107
C         0.51465818913504    2.25711665739448   -3.35065161048332
C         0.50551239462613    0.76933537671742   -3.74615295693788
N         1.88915516235445    0.56794449138175   -3.34471666904380
C         2.39194677790214   -0.66057944891998   -2.88165757852406
N         1.95064591431745   -1.81100384643652   -3.28304033717757
C         3.47228377950117   -0.75580791428584   -1.82092284132653
C         3.06025130232587   -0.38966221982727   -0.43312833935468
N         3.93925376019284   -0.77566376226478    0.44316152386615
O         3.84247530207319   -0.50383437738937    1.80112460464680
H        -0.33668206765001   -0.42576937069914    0.34446851073546
H         0.94264881490145   -1.47969581074330    0.96249348733328
H         0.60763625380369   -1.37645895488296   -0.76884109679282
H         1.95728895923330    0.73641624844456    1.03353559786909
H         3.45599174911134    2.37081156638088    0.15980494789458
H         4.00759297750594    2.68677721136634   -2.94083624875998
H         2.83428914685719    3.92404460110918   -3.43116377965595
H         3.30494485362412    2.67725803693461   -4.61322099966040
H         0.39651854047165    3.08641626342141   -4.05131252800275
H        -0.15137311349155    2.46200992040103   -2.50229102389178
H         0.20435898074491    0.56275636845630   -4.78236418284745
H        -0.18574709353150    0.16597439042601   -3.15681136308232
H         1.17982357383250   -1.80860707236993   -3.94706969779095
H         4.30740344207713   -0.08891593329183   -2.07832391390553
H         3.81373681658031   -1.79050701203806   -1.72044241253526
H         4.77418448132356   -0.55930772025334    2.08842938403113
