32
 energy: -49.292817235833 gnorm: 0.124851563812 xtb: 6.4.1 (79825abcba525fcdf90b791dcacef51065a7a4e7)
C         2.01058300918726   -1.00692054127578    1.44551487318508
C         2.45173485136631   -0.04419262518529    0.34225070352673
O         1.31312979079486    0.81409785439311    0.17705849348802
C         0.94297616199879    1.52092507462724   -0.91986078070258
N        -0.20426488352592    2.10276976030853   -0.90556555993019
C         1.88151369859464    1.96623374083577   -2.09831758395228
C         3.27807759491700    2.40193820013547   -1.57515325705981
C         1.39063588706607    2.93171686913402   -3.20370334991925
C         1.85335985856510    1.89286996113285   -4.24133610306381
N         2.05457542702093    0.93190816177234   -3.16791101970557
C         1.90651704855624   -0.46582729251569   -3.19805328242144
N         1.96515865188436   -1.18367994402668   -4.27535529273903
C         1.66508930632176   -1.13936322860214   -1.86036246415422
C         2.80511437664071   -0.69865178025923   -1.00250272738020
N         4.01214291970467   -0.87669501266020   -1.45073163833583
O         5.09558049661131   -0.46714999247651   -0.68538406019048
H         2.80499584733572   -1.72369700663272    1.68196762542513
H         1.12937143175574   -1.57330670896238    1.13092212218338
H         1.71845997677385   -0.42100170756814    2.32389585214060
H         3.36178791337241    0.48445054034302    0.64788066293503
H        -0.76409936154326    1.69532321760339   -0.14379967506042
H         3.94991261948041    1.54364028297023   -1.70580934460787
H         3.38594694092166    2.60062379811982   -0.50213550635171
H         3.63884558375347    3.28953296315441   -2.10172458849364
H         1.82748902692609    3.93145215443671   -3.15564897435855
H         0.29456800927286    2.99434028590600   -3.20655693594943
H         2.77598186185057    2.19522411300869   -4.75558563448414
H         1.14563935185403    1.50527034696922   -4.97489312141522
H         2.06503062423536   -0.74813944823776   -5.18937820563959
H         1.70858976108807   -2.22901184422635   -1.99892184818425
H         0.78357834009447   -0.73779765779990   -1.35146931656338
H         5.85708407268973   -0.39551165224762   -1.29257725431591
