32
 energy: -49.279672588865 gnorm: 0.127310122799 xtb: 6.4.1 (79825abcba525fcdf90b791dcacef51065a7a4e7)
C         1.16574707620335   -0.00096102618686    1.20816217300985
C         2.26924303285152    0.61664959464710    0.34821704952936
O         1.50186715758196    1.31437027251701   -0.64409975174811
C         2.07582893570073    2.25272868621203   -1.43776322825791
N         2.97982740682577    3.10588366974989   -1.10636777354124
C         1.82382430613941    2.03460453756023   -2.97295979774724
C         2.74588274570556    2.97389204371979   -3.79847613372554
C         0.36795969408661    1.90133923264882   -3.48059646650397
C         0.82231648569226    0.63066020044443   -4.22149646340048
N         1.97880621795417    0.59061680510287   -3.33996104171098
C         2.65799216549116   -0.46054877761152   -2.69945220412015
N         2.36385247177843   -1.72002684642068   -2.78024639266843
C         3.70989943340949   -0.05834896094025   -1.68304622383486
C         3.11861854671653   -0.44530816403487   -0.36757804053844
N         3.44052309234045   -1.65398937975935   -0.01403366659662
O         2.83541931352040   -2.28894592285288    1.06207070618090
H         0.80575624239605   -0.92082317873315    0.73378849804485
H         0.36925255501287    0.74113357030567    1.31393468033836
H         1.53682391236572   -0.34941187064486    2.17825179804186
H         2.96944093312117    1.33307518937686    0.79265727190565
H         3.03140650962599    3.14372643854978   -0.07893304995553
H         3.22322602215175    3.66628395173402   -3.09289448193349
H         2.07821525405736    3.50855830974675   -4.48464737160910
H         3.56924095773547    2.44143990972800   -4.28203724781163
H        -0.17366289041036    2.71921070897463   -3.96054620360154
H        -0.13881958065601    1.53722188783164   -2.57733129998929
H         1.22068122662224    0.82266827014102   -5.22725011622763
H         0.20573235420094   -0.26728468529169   -4.16927903644734
H         1.50779100311907   -1.92730327165661   -3.28946448270289
H         3.87250645131036    1.01668582805521   -1.84517040221133
H         4.64450026358212   -0.57669574978211   -1.91783679824466
H         3.25100263763123   -3.17227403833579    1.03513997314799
