32
 energy: -49.286414227337 gnorm: 0.136896168694 xtb: 6.4.1 (79825abcba525fcdf90b791dcacef51065a7a4e7)
C         2.00874513206242   -0.99060590474092    1.37796159352794
C         2.38032298602819    0.05237321671229    0.32307948485945
O         1.18853127632472    0.81283754481634    0.07468662495852
C         0.90042251105457    1.61911610597045   -0.97733929539481
N        -0.24440826264093    2.20121442944164   -1.05105252567983
C         1.91763355301262    1.95640268781572   -2.12600478174058
C         3.30821380322313    2.34773806145173   -1.55410167470714
C         1.36944345885586    2.98619403566302   -3.14286946762962
C         1.65219953455877    1.91208397571321   -4.20885946866221
N         1.97807991101385    0.91498937410618   -3.20099984902060
C         1.89715987710298   -0.48841089574969   -3.18065709137293
N         1.96745069091164   -1.17308036200762   -4.27866336898685
C         1.83675577025470   -1.18311024800926   -1.83340104533988
C         2.90503048002437   -0.61819992123494   -0.95620521998540
N         4.10555339398582   -0.98817395032901   -1.28995720618400
O         5.24829516678675   -0.53198568886404   -0.64703067438269
H         2.81417925673287   -1.72699815491826    1.27910568810752
H         1.07935961509139   -1.42420022631756    0.99778497509684
H         1.98759907411878   -0.55963192172103    2.38493932859124
H         3.17644133281835    0.73264055233613    0.64634682181541
H        -0.82906495126871    1.85529920300967   -0.27759677209189
H         4.08612299459042    1.57418543010226   -1.51432444488137
H         3.26107758476799    2.55420169579210   -0.47816961514417
H         3.78193116825417    3.19950328760456   -2.04942300416696
H         1.89098014464239    3.94162167144429   -3.05467620874354
H         0.28964018684173    3.11881774848579   -2.99545687607885
H         2.48726051457755    2.24094635727416   -4.84259810778132
H         0.79611675963046    1.51052397193846   -4.75207169343730
H         1.98507075021491   -0.72992282496452   -5.19430999515621
H         2.03225108183122   -2.24527566727451   -2.03836762318829
H         0.89777281687473   -1.03053278978956   -1.29273492982585
H         5.93634567947788   -0.97283141873478   -1.18176879522912
