32
 energy: -49.284535406850 gnorm: 0.124908201423 xtb: 6.4.1 (79825abcba525fcdf90b791dcacef51065a7a4e7)
C         1.84575075785399   -1.03582985201132    1.26079879327734
C         2.29239112459848    0.01577425370464    0.24428859529937
O         1.10618100675009    0.77540389129272   -0.03182882913489
C         1.03894843339488    1.88207970968462   -0.81323699494032
N         0.11923541139367    2.74432108375728   -0.55715622681164
C         1.82334148315233    1.98037514770503   -2.17080043040555
C         3.36241670128937    2.19180651198024   -2.14902370297795
C         1.13996332509316    2.89134737750433   -3.21871277674271
C         1.17251268116697    1.73154758809180   -4.23054433076969
N         1.48192503668048    0.86155029749911   -3.10646897762428
C         2.04277273106704   -0.42120317273585   -3.23487307234224
N         2.33943625581343   -0.96837167529910   -4.37150329010563
C         2.13004965990960   -1.27005573425345   -1.98060565308579
C         3.00549783154153   -0.69960044732983   -0.91384501192887
N         4.27784450010334   -0.94935729040677   -1.00484983660094
O         5.22741066508371   -0.67897285111537   -0.02886963567837
H         2.69565341742518   -1.66348651283092    1.55145794898816
H         1.18998525093113   -1.70794609195119    0.69997164283217
H         1.39697974589560   -0.56024888244261    2.13978525773957
H         3.03523600425780    0.65545073308234    0.73425319728160
H        -0.30040519186930    2.53245112304301    0.35866442770770
H         3.60463406312278    3.15409372180752   -1.67951045188365
H         3.70102801708009    2.25295093221670   -3.19021657492478
H         3.96295454574046    1.42871515955429   -1.64672773034998
H         1.80337832332378    3.74743873491512   -3.35874372541103
H         0.18145614130928    3.09199718958746   -2.72242831522457
H         1.97673278410615    1.74054258616333   -4.97904355630796
H         0.17949589488552    1.48661930743562   -4.60887682582372
H         2.24904833331118   -0.35003488467998   -5.17437155908338
H         2.77623115789624   -2.11239714579969   -2.26579946760097
H         1.14106423779499   -1.60783559399144   -1.65641234300616
H         6.01837795490592   -0.89681379134069   -0.55860484716405
