32
 energy: -49.291030958751 gnorm: 0.125976592376 xtb: 6.4.1 (79825abcba525fcdf90b791dcacef51065a7a4e7)
C         2.38140626770285   -0.77750087509271    1.42244308396625
C         2.50703498663036    0.12960931170351    0.19768991157974
O         1.23940882145503    0.79230952739074    0.07800369709859
C         0.80612741531622    1.66155364740159   -0.86885013182680
N        -0.37456042984458    2.16723364187145   -0.94077742745977
C         1.71259044961387    2.03748146077144   -2.09560029470458
C         3.20957538366695    2.35202981702242   -1.82352418148357
C         1.26206832092367    3.03806468613471   -3.18686533810264
C         1.46584608825735    1.93878418336087   -4.24519189500804
N         1.61794278095572    0.98505987658275   -3.15732553254411
C         2.05654229082674   -0.34765297331603   -3.24677456193347
N         2.37571548213574   -0.91002377104645   -4.36980547312122
C         1.94821746313212   -1.24434630812100   -2.02793844217432
C         2.90309154607008   -0.77357444682461   -0.98084897394892
N         4.07912556323247   -1.31629827260887   -1.09003352099632
O         5.03694275944286   -1.04083590583464   -0.12358242696601
H         3.36227478462937   -1.17081658291834    1.71221862749143
H         1.63994107897150   -1.53482994461152    1.15229907045526
H         1.98403788057987   -0.22213331555123    2.27909652880447
H         3.24172482719639    0.93679832309464    0.29641461698469
H        -0.97014387148490    1.91312981351505   -0.14051110284765
H         3.86925560151493    1.47639900313905   -1.76694414717049
H         3.21032570315503    2.87937594535120   -0.86207508972248
H         3.65423096314963    2.92143730726314   -2.64408002626695
H         2.06432809206872    3.77537467829176   -3.26017133687764
H         0.23654801850462    3.42989733396302   -3.19522607338167
H         2.41967814579461    2.09653668290627   -4.76713109403662
H         0.59753327321991    1.65234991368883   -4.83949479677635
H         2.27323716083600   -0.27238565643017   -5.15595027546276
H         2.10027754648197   -2.28596108713104   -2.34470564433789
H         0.94562245547865   -1.16810959776251   -1.59633685500960
H         5.83592800938476   -1.43354186757847   -0.52496493915255
