32
 energy: -49.287280188258 gnorm: 0.133854846976 xtb: 6.4.1 (79825abcba525fcdf90b791dcacef51065a7a4e7)
C         2.14487892630118   -0.73129583250230    1.44380712912016
C         2.45729266981932    0.14101062812681    0.22720081908122
O         1.17818170154845    0.73341112911550   -0.04355605821055
C         0.93049488689791    1.66138677043256   -1.00134664075693
N        -0.21093632979904    2.25433753926911   -0.98004463421879
C         1.99202135563148    1.96014255466481   -2.12019404594949
C         3.40865861072826    2.35428002938143   -1.61847248374544
C         1.43508257748752    2.93748765232853   -3.18302619025332
C         1.57916379467167    1.82650272771378   -4.23893868808890
N         1.91652544323828    0.89660298643154   -3.17233178868913
C         1.88153546275286   -0.50877307255857   -3.18604521589703
N         1.61991590726687   -1.07181061195974   -4.32353140076408
C         1.90865902379868   -1.31207509047759   -1.89945091755526
C         2.90927184996968   -0.72321161560508   -0.96039776362004
N         4.15440430327617   -0.99105763437410   -1.22007088807513
O         5.20925269880913   -0.64823542751877   -0.38515243997247
H         3.04640292148188   -1.04852935347209    1.97989251653796
H         1.60532730698226   -1.63117633234899    1.13494652655702
H         1.46788282306699   -0.23115211314848    2.14503635494275
H         3.22104762257722    0.90360917003933    0.41744192856491
H        -0.79818139475881    1.83429338861830   -0.24627305188574
H         4.08768673655661    1.52707021296418   -1.37402752441909
H         3.38265730597660    2.86112078567746   -0.64640497741119
H         3.87664523223599    3.07294937331202   -2.29652725009393
H         1.90243227363599    3.91631728957670   -3.30990146530508
H         0.37243627626873    2.92522781743310   -2.90747733459932
H         2.28830929532341    2.00572399225148   -5.05875230546508
H         0.69303804357736    1.47511501213465   -4.76857583054860
H         1.58120799887910   -0.53937304305170   -5.18962593977357
H         2.01958647728160   -2.37709588567789   -2.14814931148525
H         0.92783990792151   -1.32786496086811   -1.41464862677268
H         5.92589537133281   -1.04701856082485   -0.91533978089932
