32
 energy: -49.292024600031 gnorm: 0.125320913689 xtb: 6.4.1 (79825abcba525fcdf90b791dcacef51065a7a4e7)
C         2.04473738162211   -1.03558627646073    1.26676085366999
C         2.47044064028806    0.07136921142300    0.30131893564493
O         1.27152140232905    0.79741086988800   -0.00824307200363
C         1.00751004887143    1.66991198505748   -1.01267828567823
N        -0.16642867133820    2.18806940030618   -1.10372965231570
C         2.02743211132292    1.97871909822502   -2.16693564578724
C         3.50595641469935    2.32333929671343   -1.83658316237499
C         1.52262733721178    2.99500011685861   -3.21923855629506
C         1.30821370460705    1.85865149509993   -4.23547509502745
N         1.90698954362834    0.96121906935211   -3.25963740104638
C         1.80020431095464   -0.43649008769978   -3.15239836520391
N         1.59665649757736   -1.21296576646936   -4.16974032819787
C         1.96983661321465   -1.21848587387071   -1.86357636697087
C         2.99862389966509   -0.73631948707456   -0.89459788276061
N         4.25707224854627   -1.01656250571375   -1.05981903420360
O         5.04657961428479   -0.49827329827791   -0.04228503657725
H         3.04276322871803   -1.35049777685232    1.59163824903880
H         1.45789358734156   -1.79634050177710    0.74411077597197
H         1.37283395713081   -0.68817763970311    2.05925244138469
H         3.22396924956052    0.73745440959053    0.73674397990861
H        -0.73106578309183    1.88568066821155   -0.29783848548914
H         4.15748817715828    1.77480205002766   -2.52920273133049
H         3.75841598609553    2.12655766519938   -0.78776477677301
H         3.63706090237130    3.38768818557114   -2.04925291776076
H         2.22139431358382    3.78933573928568   -3.49011889746411
H         0.58091485307644    3.52358620493563   -3.02157984143841
H         1.89314678558539    1.90005906266913   -5.16458255605731
H         0.28170547847074    1.56552003429501   -4.45810141317761
H         1.36390621057452   -0.67164130425096   -4.99913947918450
H         2.25051765230076   -2.22954525919968   -2.19129905275427
H         1.02950988493739   -1.13754722946085   -1.30993090640401
H         5.91096743594820   -0.35775973741693   -0.47448054362031
