32
 energy: -49.287788651062 gnorm: 0.119793677874 xtb: 6.4.1 (79825abcba525fcdf90b791dcacef51065a7a4e7)
C         1.80811250561370   -0.66104978758606    1.41368134371313
C         2.27618145400260    0.21179421221015    0.24847466349781
O         1.10116178591437    0.78234421350070   -0.34665049277833
C         1.09343898931473    1.77058157598722   -1.27572400259594
N         0.13386975253221    2.62682478508776   -1.30709344498906
C         2.12171014839555    1.85114622830418   -2.46066311643008
C         3.51265448572871    2.34947363574103   -1.98017001665264
C         1.52072199919317    2.65245514100026   -3.64037226095830
C         1.55075288918016    1.33936832552094   -4.44342846126631
N         2.10988823699667    0.61785023778097   -3.31075198924116
C         1.74986702511787   -0.69562684050393   -2.96195852326630
N         0.98161687990409   -1.49600411820880   -3.63167397959566
C         2.38016699596449   -1.40961004971624   -1.78115176659005
C         3.10522800081641   -0.63068445688765   -0.73359820774562
N         4.40374426021663   -0.66339929243618   -0.78167819144094
O         4.87319076064327    0.03888813741924    0.32001748841608
H         1.41836070097695   -0.03052578815275    2.22071490903726
H         2.59794083170451   -1.25871616594609    1.87764453643337
H         1.08967654242681   -1.41012651181177    1.06307656125394
H         2.92125773628150    1.01106466109371    0.63072218892541
H        -0.60617674860132    2.59974462101123   -0.59203231380434
H         4.09084314687322    2.78590039362626   -2.80499616440780
H         4.18392268072756    1.56397511723600   -1.61292358863384
H         3.48081167739359    3.21329117907603   -1.31079669119333
H         2.22656470298777    3.46215411786293   -3.83733464352364
H         0.51507160135405    3.06751964795075   -3.49311956044050
H         2.10504366191913    1.33174410674832   -5.39200928417469
H         0.55121781699589    0.97185838780256   -4.67810644858464
H         0.45666660994817   -0.97310083359836   -4.32888785706588
H         2.98550065450478   -2.18869816859422   -2.26593825679276
H         1.55171211443120   -1.91394628928686   -1.27459852981426
H         5.74498982441546   -0.36219017000593    0.50114149903862
