32
 energy: -49.288234630518 gnorm: 0.132982274729 xtb: 6.4.1 (79825abcba525fcdf90b791dcacef51065a7a4e7)
C         2.18603508085120   -1.03553704342515    1.30356460364127
C         2.41668549121221    0.03953867944428    0.24070788801628
O         1.12487464539858    0.59656326365500   -0.04446022199882
C         0.91928190436369    1.57847857177004   -0.95738096370712
N        -0.07159828341333    2.37234702878204   -0.75040526911737
C         1.84634260732539    1.96794922995478   -2.16435404506257
C         3.31136389097244    2.27453467670530   -1.74764311763279
C         1.31008200861784    3.01896880051193   -3.16574249604511
C         1.26355565230259    1.93414643128428   -4.25706913110619
N         1.70066954898487    0.96329248117599   -3.26583216595585
C         1.97663758241361   -0.41498860377019   -3.29185336609420
N         2.07678662209265   -1.04077172616001   -4.42220575468863
C         1.99654824074689   -1.16225800359894   -1.97179779838908
C         3.00505426557416   -0.69139253092724   -0.97630378089107
N         4.24565563786265   -1.06030575827552   -1.09604393662828
O         5.13904235814264   -0.54237775902347   -0.16817984381284
H         2.91905123696162   -1.85006575783278    1.30289325629190
H         1.14108733888522   -1.33579278821586    1.18428995742423
H         2.38088270987592   -0.58291620577917    2.28201167423921
H         3.00954031969333    0.90577912451931    0.55570072411986
H        -0.70593244151430    2.01760368484794   -0.02137034139696
H         3.34397912774410    2.60263038935128   -0.70055282921497
H         3.69316535461722    3.14813233987647   -2.28943055342222
H         3.99165294457658    1.44010783264212   -1.93789036092793
H         2.02293636753671    3.84539095612943   -3.20428621814351
H         0.34075676639221    3.42720937369082   -2.85103177571585
H         2.02237308394268    2.02627253849609   -5.04625279715029
H         0.34699610999589    1.65496633349710   -4.77782314822927
H         2.11061693371829   -0.48559750508630   -5.27411238789336
H         2.25983606327445   -2.21745661953070   -2.13198671955890
H         0.98655192776488   -1.14358533950507   -1.55126540379524
H         5.82689896421214   -1.23416365516220   -0.21277678684655
