32
 energy: -49.289043131011 gnorm: 0.133125819546 xtb: 6.4.1 (79825abcba525fcdf90b791dcacef51065a7a4e7)
C         1.98690539194010   -1.12860036920694    1.29314896385230
C         2.39652707897502   -0.03555918264015    0.30515966336883
O         1.15530431648332    0.66113978127991    0.11982453919788
C         0.99327885093391    1.64086365183323   -0.80415555262040
N        -0.00088137459715    2.43904609365717   -0.63251684633967
C         1.81683457840335    1.90460969137144   -2.11568402774407
C         3.31547132311258    2.08436779203881   -1.74730253170690
C         1.31111363421304    2.98424354279591   -3.10241269536618
C         1.41247896439822    1.91399977520454   -4.20436616585789
N         1.54976056213896    0.88767584167312   -3.18260805625887
C         1.99813202846265   -0.43585487368323   -3.33663302945430
N         2.37682633210479   -1.01237769422246   -4.43369407228536
C         1.95062310591252   -1.23248344351615   -2.04648554140135
C         2.86918872863151   -0.72781553738452   -0.98283402877665
N         4.13720652413915   -0.87882214858152   -1.22543311857944
O         5.10725508969095   -0.35985096162739   -0.37867712933229
H         2.68074683750777   -1.97425641221180    1.35811100840368
H         0.95127343421116   -1.41833055063222    1.09360296443370
H         1.85852710713422   -0.72202355194508    2.30230910859457
H         3.15358745144338    0.70004310188791    0.59980981712794
H        -0.55482043008032    2.30736175477513    0.22511089550702
H         3.33637634303034    2.64819056446270   -0.80561495887389
H         3.68075128708126    2.75843887416172   -2.53131630052720
H         3.97178216164882    1.21070444093438   -1.71231973425562
H         2.01850827211580    3.81045472327752   -3.20033329227066
H         0.26572397151438    3.22075957637181   -2.86468333859818
H         2.34902192376103    2.07381377290552   -4.75613490846168
H         0.59290605948025    1.84978419126151   -4.92087456255056
H         2.45976574413311   -0.43781461592276   -5.26922153502379
H         2.22814874313001   -2.22796723231429   -2.42120762451786
H         0.94363380691185   -1.09852339831385   -1.63989485952619
H         5.91339379267337   -0.54773272928434   -0.89688959191397
