32
 energy: -49.284614547174 gnorm: 0.134407017454 xtb: 6.4.1 (79825abcba525fcdf90b791dcacef51065a7a4e7)
C         2.13771248236550   -0.98582200628467    1.23230703835836
C         2.42248049761175    0.05123756457900    0.14507824879834
O         1.15056308006510    0.61545603037122   -0.20742154410662
C         0.90729875278512    1.65604660872175   -1.04279215842776
N        -0.22894317265984    2.25121453485747   -1.14097080976697
C         1.96175926993691    2.02626819437229   -2.14685827751556
C         3.44677716072565    2.22615196193784   -1.73612924454424
C         1.48198935618498    3.14116704050015   -3.10697170982674
C         1.04218057465704    2.00975130211598   -4.05378994129756
N         1.66697187379725    1.00740519929986   -3.20460516051320
C         1.89019278789184   -0.37849196229430   -3.28177816879556
N         1.74758158402423   -1.01810042443554   -4.39976471629351
C         2.26446926486864   -1.18225538226427   -2.05082887803246
C         3.17836295182570   -0.58752757507171   -1.03058175994466
N         4.38026942391082   -1.06654654991099   -0.90613061983580
O         5.16119331033989   -0.73525601356643    0.19283502035543
H         3.11033696230641   -1.38770708713731    1.53769231518019
H         1.34719815080098   -1.63817448314672    0.85044440129662
H         1.71635348622897   -0.41902062057458    2.06979296492521
H         3.04953055815420    0.85508833239574    0.54720012867845
H        -0.87345783729629    1.82707859809657   -0.45948409181286
H         3.80096426587774    1.18927437673506   -1.66871264562319
H         3.65515224779476    2.56905584885775   -0.71560212576271
H         3.95248377457449    2.74403722436971   -2.55546498021265
H         2.22744498675009    3.79892066670113   -3.55894140301403
H         0.61081376302692    3.63284297679415   -2.65464164213167
H         1.50079890859591    2.03654902505722   -5.05181452775098
H        -0.02926632646071    1.81457449428010   -4.10960413224591
H         1.34931172466413   -0.46731486170339   -5.15681438485147
H         2.72625527549992   -2.11630721822827   -2.40115148819537
H         1.30059562761631   -1.34854300805610   -1.56033447869652
H         5.89863590994997   -1.36626979037960    0.08465300296667
