32
 energy: -49.294234826093 gnorm: 0.115133121607 xtb: 6.4.1 (79825abcba525fcdf90b791dcacef51065a7a4e7)
C         2.36320045218318   -0.87050668936382    1.35051976172359
C         2.55329788475312    0.15091920314592    0.22837720297841
O         1.33703861245769    0.89062958522914    0.04421853613664
C         0.97412180645189    1.62622364123723   -1.03607914551537
N        -0.24212585903171    2.03454945075071   -0.94162686693585
C         1.95397708382127    2.04814084870010   -2.18924106360583
C         3.30226287861360    2.56047547816636   -1.61168707765965
C         1.31903621457130    2.90801261576471   -3.30837778891348
C         1.55173076755099    1.77712295666118   -4.32668026022083
N         2.06303962756121    0.97356201513107   -3.22712137017758
C         1.86686332446173   -0.41788626990743   -3.27048873581174
N         1.64985571434907   -1.09300201910593   -4.35513489229566
C         1.83187874187404   -1.11239369503916   -1.92223423114228
C         2.93514993015619   -0.62617129523834   -1.04121919520865
N         4.10894567094905   -1.18148432860952   -1.09916256151002
O         4.95813305455790   -0.86734365340044   -0.04677601460397
H         3.17405042352260   -1.60289539581038    1.26745791982762
H         1.47782999113624   -1.49760560834728    1.21209351833726
H         2.28688707958993   -0.36046875552891    2.31707419032344
H         3.34440456081025    0.85143603742028    0.51905955077707
H        -0.73046978749203    1.68383698388265   -0.10602196217032
H         3.98993300786722    1.70502167436229   -1.59126155745711
H         3.10714307478673    2.99920181874897   -0.62582384354325
H         3.75546297761369    3.27323479013684   -2.30583345744710
H         1.84814129341514    3.84081597479599   -3.51464517705320
H         0.25929420181378    3.14862024132207   -3.15233466042583
H         2.26703960986938    2.02138608079880   -5.12403260295022
H         0.67432551206973    1.30788747441501   -4.77298257116614
H         1.57917952930887   -0.53366364758627   -5.20204296418823
H         1.83200771349114   -2.20982685426573   -1.98599569119899
H         0.89650491732581   -0.99805073466704   -1.36609557212224
H         5.84463789186693   -1.13762737039805   -0.35460585213308
