32
 energy: -49.288905249878 gnorm: 0.120151657415 xtb: 6.4.1 (79825abcba525fcdf90b791dcacef51065a7a4e7)
C         1.84916618632895   -1.24148931396708    1.05565739218573
C         2.40201463404397   -0.05184718307924    0.26967902935758
O         1.29204801289853    0.84146246230198    0.09548252932087
C         1.02251567658224    1.62991001487538   -0.97482259234709
N        -0.04412075358996    2.34846025848057   -1.00451855312306
C         2.00690961014514    1.96421679620905   -2.15258337372755
C         3.39089854147193    2.44262925967135   -1.63332802303048
C         1.43894104750765    2.98007903223488   -3.17259906293561
C         1.23798287126224    1.77756749727360   -4.11258838241932
N         2.08861518321871    0.96029738852612   -3.26131231689837
C         1.81319861213252   -0.41608532400763   -3.18250526167430
N         1.41378663956045   -1.12540047360379   -4.19080728436850
C         2.20176498776360   -1.29516178414129   -2.00879514675827
C         3.06927270036036   -0.65007264666606   -0.97869933965763
N         4.34553908313066   -0.85855259288058   -1.10987341418299
O         5.22691309280339   -0.31085635016498   -0.18763174922767
H         2.58532775810617   -2.05282872065346    1.07942008444236
H         0.88442790255817   -1.52322360020438    0.62414659708529
H         1.72397770275465   -0.98644696812619    2.11370801966542
H         3.15163655506603    0.46073304264241    0.88319211612893
H        -0.73013588146406    2.26308412217685   -0.24175467444817
H         3.14766454657648    3.00883918293941   -0.72483907495505
H         3.94909592814111    2.79111769104490   -2.51051121313070
H         3.98519655472083    1.59246599149435   -1.28794757344837
H         2.24750486728842    3.66080468362715   -3.44729465721058
H         0.54964763611570    3.58398764087666   -2.94956041503446
H         1.56872913657721    1.95134714153304   -5.14579190442367
H         0.19655399775855    1.49459145228400   -4.26929872807482
H         1.18417383318786   -0.58793364579731   -5.02358287733870
H         2.73876607688287   -2.10752460382919   -2.51881629028230
H         1.30852898009377   -1.72016032530124   -1.54104053256558
H         6.09255894036467   -0.72187627918020   -0.37584228640985
