32
 energy: -49.287485438275 gnorm: 0.125704852336 xtb: 6.4.1 (79825abcba525fcdf90b791dcacef51065a7a4e7)
C         2.01123312502322   -1.17746655739156    1.25796223159741
C         2.33156439879289   -0.08490556120478    0.23700671810693
O         1.16477399541172    0.73605544586603    0.07890652997976
C         0.96875045213543    1.77922739254034   -0.76561545716268
N         0.10344161930957    2.72209294529118   -0.63463922027160
C         1.82473218233805    1.91883488160410   -2.07546964239238
C         3.29266855379822    2.30431372868980   -1.74305593194778
C         1.31343982963033    2.89202834886804   -3.16472214634974
C         1.78794273882537    1.82028706768113   -4.16282821270700
N         1.78981063794483    0.82681059550775   -3.10020048097426
C         1.82304464376248   -0.56532358987426   -3.29346742125888
N         1.78154231418418   -1.16406269153192   -4.44199688036099
C         2.05847018669487   -1.46179442361513   -2.09252214281974
C         2.85485818247499   -0.77451648239297   -1.03270035048612
N         4.14379292288056   -0.85531888595369   -1.17982157655685
O         5.05605681487924   -0.28271288612743   -0.30391177592771
H         2.87918297484052   -1.82681437106267    1.41852573497808
H         1.19699518059420   -1.77156229367671    0.83327109412688
H         1.66225949953566   -0.65119403990262    2.15319657921693
H         3.13516786291744    0.58997875099001    0.55295367981805
H        -0.46047239462580    2.67074959209097    0.22505807015297
H         3.98589362586526    1.58938043395691   -1.28108406977413
H         3.06865533836293    3.06207918606279   -0.98273464310073
H         3.73533953813834    2.81776539303171   -2.60076518480470
H         1.67941806170500    3.91793963952344   -3.24337639196095
H         0.22428735229281    2.99837146197939   -3.07678661929408
H         2.80819637584323    1.97065372750799   -4.54174028735116
H         1.17289718563048    1.70599485327277   -5.05606050410753
H         1.62541221804051   -0.51469251154487   -5.20949253801653
H         2.51973984627541   -2.38828895756497   -2.46301271842985
H         1.09414581006831   -1.69452828893217   -1.63078394283182
H         5.89562960029792   -0.30816970132960   -0.80208123686799
