32
 energy: -49.287120170213 gnorm: 0.118165222224 xtb: 6.4.1 (79825abcba525fcdf90b791dcacef51065a7a4e7)
C         2.05870621377647   -1.03978802428411    1.16708970766393
C         2.33210129300852    0.05038066972102    0.13005587800347
O         1.07245526279577    0.59685580507621   -0.28830915440678
C         0.93769360053775    1.70810324028355   -1.05435013084583
N        -0.12841073778695    2.42801168342259   -1.04641406761128
C         2.03927882167062    1.93989628753909   -2.15011240700765
C         3.47962430073699    2.15487291668450   -1.60870690269531
C         1.59148773916585    3.02870155107083   -3.15459368960114
C         1.17261921461008    1.87813680646885   -4.08773249190643
N         1.73868630393900    0.89340801212618   -3.17885740852792
C         1.89739558279873   -0.50036099943427   -3.27220348028076
N         1.45506155165069   -1.10613644507857   -4.32894733281216
C         2.29059761623481   -1.27067710715640   -2.02586487344930
C         3.14463004286708   -0.60369327287292   -0.99845639217915
N         4.41547878362110   -0.87368906571283   -0.95880573228080
O         5.08038033536412   -0.42058376819341    0.17253088021983
H         3.02239418563732   -1.54614398454044    1.29230671606141
H         1.21197981317771   -1.60951310757425    0.77368982459547
H         1.77014588347393   -0.54044022944062    2.09852655810103
H         2.95580439248808    0.84013813716154    0.56404600118237
H        -0.82845539993147    2.05422298286903   -0.39072049022979
H         4.11870177450398    1.26229976826764   -1.60737683198432
H         3.43694143292143    2.59247866079276   -0.60413821961559
H         4.00884793620079    2.82246518127074   -2.29390634793713
H         2.23924569407983    3.73828602763391   -3.67374687461411
H         0.74635121440117    3.64675642758380   -2.82437095991170
H         1.59581142332754    1.85736641217669   -5.10142816230287
H         0.11751953252855    1.71249693378298   -4.30804082115528
H         1.14875664383909   -0.42545914372084   -5.02029640254256
H         2.79098497860722   -2.19607514012981   -2.34473169268637
H         1.31144215774978   -1.60368455545616   -1.66858439433521
H         5.99690515793615   -0.75775531923503    0.17348817399945
