32
 energy: -49.293366686820 gnorm: 0.117960809005 xtb: 6.4.1 (79825abcba525fcdf90b791dcacef51065a7a4e7)
C         0.92046622274288   -1.14633178396818    0.26315164128517
C         1.87395610707069    0.04017928305632    0.11584128750409
O         1.31889338366271    0.89648730934365   -0.89362116283624
C         2.03481524136523    1.93696630479259   -1.38830257284567
N         2.28354534357520    2.97523221861204   -0.67063494465338
C         2.17559240362912    1.92107193548749   -2.95286069805385
C         3.50136979024930    2.55731106124856   -3.45430269927261
C         0.86693297132141    2.50557719406622   -3.53660764063112
C         0.48598373285928    1.04107078146414   -3.81962132580084
N         1.82847495745061    0.57443801222192   -3.50954412442631
C         2.06717901439175   -0.57818086800850   -2.74078908117369
N         1.36563495582426   -1.66768852548084   -2.75261539456123
C         3.35859353915754   -0.59140466894095   -1.94490696081118
C         3.22976919741227   -0.38125500803245   -0.47213799533663
N         4.32214021409494   -0.56873292632664    0.20690841055580
O         4.04711643235583   -0.52669515809917    1.56702449579804
H        -0.06310013409420   -0.66831995649420    0.33295192016528
H         1.20533376835903   -1.65296729925971    1.18968640614513
H         0.97064976233792   -1.75197922744011   -0.64836504841497
H         2.09835541060180    0.50613478734780    1.08207120591089
H         2.01150439478362    2.76238746882025    0.29911008469346
H         4.29039090354378    2.47921157612017   -2.69505651333720
H         3.38077152194022    3.63889022177593   -3.58891857048115
H         3.77069539088648    2.07046494942732   -4.39541903248496
H         1.03715080511821    3.10712722842670   -4.43203155036437
H         0.25889548749983    3.05581520719732   -2.80666026394811
H         0.08519917742073    0.78427804745700   -4.80983908200839
H        -0.28866761692412    0.60359780430707   -3.18895472910742
H         0.47279945272034   -1.62310596348558   -3.23837765753228
H         4.07898233212958    0.17869092634009   -2.25541918250568
H         3.75344561756950   -1.59942881516086   -2.10386568945442
H         4.89742329347833   -0.59634075641427    2.04224134659437
