32
 energy: -49.289586449799 gnorm: 0.136539653494 xtb: 6.4.1 (79825abcba525fcdf90b791dcacef51065a7a4e7)
C         2.36411982658201   -0.37995432017567    1.67370557449475
C         2.49785572143709    0.37560855487394    0.35087102176886
O         1.35543683885389    1.18934857080119    0.04578289344720
C         1.03685958835358    1.70690594547117   -1.16685605128487
N        -0.11650575732858    2.27295200272619   -1.23204686669122
C         1.98040689615456    1.94764429955198   -2.39960762983152
C         3.38124812015886    2.40607120184237   -1.90826394823234
C         1.38586704330325    2.70342459591350   -3.61217304452419
C         1.69814608247654    1.49545346484536   -4.51399655796080
N         2.02144936172336    0.75463718621090   -3.30451613028621
C         1.81078117760798   -0.61695979636797   -3.07905032908140
N         1.88813899058634   -1.49603309296298   -4.02803756388767
C         1.61941330638365   -1.14695865895465   -1.67056382430780
C         2.70724257595965   -0.64360981368782   -0.78001654962297
N         3.85271359400703   -1.23517953753997   -0.94575082823682
O         4.81279439553380   -0.79403236016928   -0.04522040410428
H         3.30114321885168   -0.88877801078368    1.92640257541892
H         1.67095686560821   -1.20702904140812    1.49546907985258
H         2.11991197569480    0.24128914341013    2.54238789215543
H         3.36606590031833    1.04408016398550    0.33021599371035
H        -0.65840815031500    2.09854505530908   -0.37435309770163
H         3.93821657420999    3.01701444366438   -2.63051259570028
H         3.96786396959598    1.62872586269578   -1.40418566116393
H         3.08845283769960    3.13532124440701   -1.14818456032793
H         1.97609308508122    3.61726441839994   -3.70783145791579
H         0.30710147341228    2.90551810018043   -3.63896260914259
H         2.54503623218091    1.67125326461027   -5.19147236740420
H         0.85294650267699    1.09817115515349   -5.07703483848757
H         2.13307681963002   -1.10280378822393   -4.93384327869495
H         1.47745540141128   -2.23594027595040   -1.71947260678691
H         0.68944590459937   -0.73945725346665   -1.26265212853436
H         5.61655325327312   -1.15937398255994   -0.46259376383345
