32
 energy: -49.287711157901 gnorm: 0.148201653767 xtb: 6.4.1 (79825abcba525fcdf90b791dcacef51065a7a4e7)
C         2.10603442957571   -0.97381232464244    1.28876093792075
C         2.45548992889213    0.03795231032883    0.19657734257896
O         1.20148272534261    0.68982389728284   -0.05422511999033
C         1.02437729572560    1.75099743890270   -0.88029697840447
N         0.00973021772092    2.54140455224164   -0.90593907882444
C         1.94790449711052    2.03439000581925   -2.11912672152369
C         3.40526701009609    2.46662393173178   -1.79788176839944
C         1.20855788519922    2.86446503198830   -3.19585251970563
C         1.43047597361754    1.74994189720882   -4.23440374524591
N         1.85724089536865    0.92135228321658   -3.11749388417469
C         1.96113043498468   -0.47750511861469   -3.21182909062854
N         1.80711337816613   -1.21170987228837   -4.26849980336074
C         1.92053887057557   -1.32215426043364   -1.95235504759820
C         2.94400555503313   -0.77338593609198   -1.01364511810166
N         4.20672844870386   -1.05341437956552   -1.14264674425301
O         5.01022797553449   -0.54072602241801   -0.13326070134589
H         2.86812653898247   -1.76118920994978    1.29360072584478
H         1.15041720601579   -1.42190950917818    1.00188052127551
H         2.02116296221386   -0.36627653195818    2.19644314448057
H         3.24052028405999    0.75907620650965    0.45109161896260
H        -0.48959376903708    2.38103876264223   -0.02012139810305
H         3.94740575073962    1.66257936019681   -1.28338538068014
H         3.37352711421507    3.29982292263501   -1.08566629718153
H         4.02955325377931    2.60511841085291   -2.68464065930613
H         1.66584933632306    3.84862964970471   -3.31802072679572
H         0.14973395769054    3.00305854170403   -2.94094398730386
H         2.26717460727185    1.97499879160919   -4.90996777948775
H         0.47187505675295    1.47651401174621   -4.67659052123591
H         1.83600717443317   -0.71270076588669   -5.15465039897999
H         2.26052861691351   -2.33207093369767   -2.22235575246010
H         0.95488156389670   -1.27361658634385   -1.44006725890444
H         5.88256349026889   -0.71868938215569   -0.53458739702553
