32
 energy: -49.286929280206 gnorm: 0.135751668771 xtb: 6.4.1 (79825abcba525fcdf90b791dcacef51065a7a4e7)
C         1.85445739973977   -1.25273188954334    1.07226494605069
C         2.32123539901379   -0.11770582550577    0.15985827335564
O         1.15158599943099    0.66900238414112   -0.11103458851539
C         0.99418854625273    1.72147229257237   -0.95209548987255
N         0.02962657875024    2.57099265771793   -1.00543359664853
C         2.06078386352874    1.98812656035299   -2.07422867265269
C         3.40458446998184    2.43459273483445   -1.43485565655654
C         1.54786738396961    2.91872799192716   -3.19934824562259
C         1.40700398859881    1.72150736391597   -4.15685457626068
N         2.03448066184812    0.91638418565685   -3.12040564760213
C         1.80848808915761   -0.47047415033803   -3.16563284688935
N         1.34240949838880   -1.12879191867488   -4.17989086319811
C         2.14849974689819   -1.39756448147157   -2.01400344679645
C         3.06071322426038   -0.72040813460145   -1.04491477031795
N         4.35671979930679   -0.81113747743826   -1.08567698592827
O         5.17675177429114   -0.13085119578464   -0.19568870374432
H         2.77444513152062   -1.80257715477371    1.30043795300872
H         1.22736274551212   -1.99856974796630    0.57550150730832
H         1.42242187982455   -0.82948770680196    1.98571968397884
H         2.97655764960388    0.57786906043923    0.69632649971392
H        -0.72578369190909    2.30581078317194   -0.35832581409552
H         3.79533558572451    1.59575101836262   -0.84429087794796
H         3.26060369116542    3.42159777236007   -0.97925775478780
H         4.09511587689301    2.64771767990764   -2.25522112544055
H         2.24063419052554    3.71676491903942   -3.47472389321450
H         0.61762293032795    3.42864693018558   -2.91664246248475
H         2.01711426902956    1.76014177424290   -5.06974821823986
H         0.34989745556571    1.51863755075569   -4.33171820709154
H         1.10492501145968   -0.72604683664359   -5.08349770569714
H         2.55146709686439   -2.28996112530271   -2.51367396281528
H         1.17335343586576   -1.68973937531849   -1.61274017316447
H         6.08121505578143   -0.39592608343313   -0.45139321797371
