32
 energy: -49.287087754074 gnorm: 0.120057815903 xtb: 6.4.1 (79825abcba525fcdf90b791dcacef51065a7a4e7)
C         2.08921481724795   -0.96246005695271    1.28539677199692
C         2.51244579808857    0.10586102613281    0.27632916911750
O         1.35326843499031    0.93905339506995    0.12642646715856
C         1.05916566208537    1.67559587287770   -0.97396395401647
N        -0.16801415157107    2.03998894043832   -1.10107419604963
C         2.05965732922795    1.95253397946168   -2.15304609138069
C         3.48259775997421    2.40530151611235   -1.72389333330163
C         1.40497089725837    2.91981553660503   -3.16830393014915
C         1.61013324121430    1.86701845993078   -4.27262491134107
N         1.99671553125250    0.92098616509284   -3.23736952456651
C         1.74247845926041   -0.46019036999644   -3.17249192154714
N         1.42612506105159   -1.28096156201714   -4.12411477265707
C         1.84696759806774   -1.19713353378951   -1.85061768155168
C         2.93664402465023   -0.72174736708579   -0.94705787774986
N         4.17745723644650   -0.94564463526152   -1.26293607188345
O         5.08149243526097   -0.51463975816474   -0.30154323939390
H         2.89161509359102   -1.16841150490950    2.00268887621836
H         1.83281662787864   -1.82979915940315    0.67035320634036
H         1.17405415445797   -0.63015581656676    1.78763650153411
H         3.29245328394388    0.77040580935307    0.66496575572004
H        -0.69975067801437    1.82762291095663   -0.24557929410125
H         4.17134166969614    1.60515179816429   -1.42305969893900
H         3.32864560760657    2.98559507635888   -0.80626760131363
H         3.72451374167537    2.99157419034083   -2.61440801174727
H         1.86806796198485    3.90284262781512   -3.27702090887270
H         0.37525313691794    3.21884955564751   -2.93260365357466
H         2.43673209702143    2.12301478328080   -4.94960510862817
H         0.76507228536913    1.64486290922553   -4.92510216066105
H         1.16407980338720   -0.89028137885682   -5.02622845465401
H         2.08331284502102   -2.24675662848145   -2.07613348420458
H         0.89036974668986   -1.25482082288061   -1.32252541189761
H         5.98719734376944   -0.78618924283516   -0.54580297605894
