32
 energy: -49.291982445696 gnorm: 0.114476863826 xtb: 6.4.1 (79825abcba525fcdf90b791dcacef51065a7a4e7)
C         2.32688802442883   -0.77590169988595    1.42001018976201
C         2.48652310525897    0.12497359224582    0.19461549342479
O         1.25204724644022    0.84553834678078    0.06335896484228
C         0.90684749882113    1.51744641397651   -1.06324078968587
N        -0.29983309844890    1.96101147403970   -1.10886497565316
C         1.97127544246370    1.89992867192640   -2.15347627712938
C         3.32707034274443    2.29684525598657   -1.50678670175150
C         1.49198926162340    2.92282005715194   -3.21129212380021
C         1.78205127469270    1.87744734058921   -4.30356407487569
N         2.12520958693966    0.91313140630414   -3.26987464194766
C         1.74324802146393   -0.43891534558264   -3.21918765732699
N         1.34316695764924   -1.13049216162146   -4.23947562134373
C         1.81427109961530   -1.17979519735841   -1.89729224673631
C         2.91747280835081   -0.76929861759522   -0.97846387561171
N         4.15241598563633   -1.14218866246083   -1.13782133324445
O         5.03163129481568   -0.44870940933534   -0.31721912386949
H         3.21892576133135   -1.38232610307470    1.61311192735290
H         1.54539847241551   -1.53315299187726    1.30982719058972
H         2.02644771424622   -0.10374724678692    2.23126471320023
H         3.28332276605102    0.85888645230577    0.36060359817527
H        -0.86081918035535    1.92997452158136   -0.24628402023137
H         4.07805263657437    1.53663314071813   -1.75820618428184
H         3.33912974183625    2.64156441160150   -0.46587261986362
H         3.66574188229825    3.16247136842721   -2.08232853161991
H         2.05979235179294    3.85565358980263   -3.20482803461090
H         0.40677970907242    2.98807750695458   -3.05846436206432
H         2.61632784436562    2.13176388879411   -4.97170153976435
H         0.88440311744360    1.59457410928236   -4.85439816506091
H         1.20729347631488   -0.60253166703776   -5.09848897085786
H         2.00123445168220   -2.22841636772326   -2.16907053067005
H         0.79953735247012   -1.08182216946409   -1.49979328222685
H         5.93818830099150   -0.60093948614370   -0.64689126529396
