32
 energy: -49.286226387693 gnorm: 0.124715393241 xtb: 6.4.1 (79825abcba525fcdf90b791dcacef51065a7a4e7)
C         1.82887392922024   -1.04346953984805    1.26751735441412
C         2.46017942432395   -0.02230248909190    0.32024598259341
O         1.28838455542986    0.76068617804348    0.04785283330875
C         1.03814979056422    1.72157914098871   -0.87622378643148
N        -0.15445351782253    2.20259142943319   -0.91135391770848
C         1.98248595430512    1.96609027054335   -2.10762805044755
C         3.42138641115474    2.41959395200954   -1.73637357735598
C         1.48785201508287    3.00861736728151   -3.13887531140072
C         1.55990253270023    1.84007480511045   -4.13853280516318
N         1.96857534269134    0.87293556690123   -3.13165400265767
C         1.81032455507994   -0.52400783292398   -3.13186165242623
N         1.80527660234154   -1.26440599022083   -4.19540101024489
C         1.82713769653802   -1.28277664161823   -1.81833893380036
C         2.92094850721448   -0.77934167612635   -0.93519783577049
N         4.16198103649853   -0.89898570959988   -1.30268935013855
O         5.19649684492843   -0.27336590831815   -0.62026871336280
H         2.58845058094249   -1.72855794327917    1.66054070542673
H         1.10484040566388   -1.69249655377393    0.76668292270096
H         1.26723933869809   -0.53896924746549    2.06139135783604
H         3.31170588797085    0.56023813934307    0.68986597458262
H        -0.65701991670362    2.20508938912503   -0.01294679447261
H         3.99142090808909    1.57256823898481   -1.33299195046770
H         3.32205855476311    3.24431308582341   -1.02051661435550
H         3.88078642127643    2.78445030644430   -2.65891725945008
H         2.19502914591904    3.83719728624894   -3.21618221764341
H         0.47491110012613    3.41594753355213   -3.02343068163851
H         2.26603105032686    1.90508861276534   -4.97773343467307
H         0.61330805499235    1.51201764079715   -4.56928223272907
H         1.80361457791306   -0.83933243380107   -5.11974809165944
H         2.06819591825329   -2.32035299871197   -2.08991090175056
H         0.83167691351685   -1.12984253334309   -1.39060336871741
H         6.02282763063029   -0.55558477132733   -1.05757097600846
