32
 energy: -49.292019094609 gnorm: 0.120644906248 xtb: 6.4.1 (79825abcba525fcdf90b791dcacef51065a7a4e7)
C         2.14711275248955   -0.72392954087518    1.37376312949041
C         2.59081445583140    0.14145720056178    0.19355705678842
O         1.43144370043140    0.96869815842992    0.01493930208135
C         0.97305595890962    1.56503267349760   -1.11382822779743
N        -0.29613178369364    1.66646507407534   -1.29763118757886
C         2.03763974380691    1.98173884689213   -2.19129297423835
C         3.37786437568225    2.39132883165485   -1.52049944747783
C         1.38630810315247    3.04010603108677   -3.11358489987379
C         1.41751844156248    1.94289385114872   -4.19300578427284
N         2.02567538599973    0.97141859529242   -3.29714997179464
C         1.77616614110708   -0.40957209624584   -3.21286454632416
N         1.24621311088084   -0.99095612877819   -4.24265736586075
C         2.02820965595343   -1.24605231723208   -1.97265103573225
C         3.02503060916261   -0.76035564315677   -0.97252419967712
N         4.26713603178974   -1.10965266369151   -1.12966142442149
O         5.15730108943458   -0.74347391475871   -0.12924136300709
H         2.94753177224675   -1.42092265155821    1.64634367499461
H         1.22837466396232   -1.28500806589462    1.18035438935783
H         2.04202019365470   -0.06223950177264    2.24054553089625
H         3.51274949882845    0.67834626683742    0.44426750335256
H        -0.88106347989178    1.30212379831004   -0.53289271712838
H         3.04076549024100    2.84309266934633   -0.57848967967682
H         3.83232808669298    3.17796138851622   -2.13462550350551
H         4.04761162483738    1.54300491584581   -1.35605942307834
H         2.05868720381064    3.88777893895056   -3.26183306975704
H         0.37327508841578    3.31075920038052   -2.78830717176305
H         2.06001837418729    2.08771048698206   -5.07239418172463
H         0.47917798838495    1.65800574183993   -4.67004207887282
H         1.14527895806189   -0.32972762225694   -5.00927133683585
H         2.37303207956927   -2.18949896197513   -2.41922801202974
H         1.01505969550211   -1.37969951162676   -1.58155732843474
H         6.01182495192479   -1.08636029207663   -0.45469677096337
