32
 energy: -49.285441475580 gnorm: 0.119693524286 xtb: 6.4.1 (79825abcba525fcdf90b791dcacef51065a7a4e7)
C         2.22320462221281   -0.77901250834960    1.39175763112811
C         2.34126622989417    0.08044477411003    0.13237427174564
O         1.08098456672790    0.72371963141848   -0.10899696473772
C         0.90782947414280    1.75474720946103   -0.97320166791104
N        -0.14896340027968    2.43714889756005   -0.70408024500420
C         1.94673032526971    2.00184352415672   -2.12539147536995
C         3.34299095445053    2.47366872931965   -1.63369319355824
C         1.41925022197983    2.91222239664542   -3.26027976568515
C         1.54514197134304    1.70424828784362   -4.20629663846876
N         2.02205828132657    0.87548248911926   -3.10999614097147
C         1.84583984366897   -0.51630831430499   -3.20142707354474
N         1.62782140558622   -1.13675474043148   -4.31804923987708
C         2.02426904492952   -1.42303285793715   -1.99836085665163
C         2.92874120306888   -0.75679746494393   -1.01455825589238
N         4.15516705682911   -1.14917474779832   -1.19188884112893
O         5.04474620725977   -0.52938425400697   -0.32480770163827
H         3.07205627888984   -1.44562867641352    1.58108250868307
H         1.29818253203446   -1.33208272046830    1.20536232787458
H         2.04092716489605   -0.11949640412386    2.24732956065348
H         2.96289627215110    0.93303363336489    0.42858056190263
H        -0.57820154533907    2.17320010114555    0.19358351841849
H         4.05424670434195    1.63817449227219   -1.66794599863914
H         3.27960392339058    2.71120061872016   -0.56503069248818
H         3.75072164868144    3.35712276954868   -2.13221099914527
H         2.13785545085612    3.69427880232373   -3.51447424736702
H         0.39171998539346    3.22988464215287   -3.03990069025825
H         2.31613176066020    1.79485405775392   -4.98377160066584
H         0.62844198483038    1.29788508345955   -4.63494306415010
H         1.63560850975726   -0.58194980866176   -5.17083213470945
H         2.53498424162455   -2.33089827821417   -2.34960928338517
H         0.98240454677326   -1.61125210300726   -1.72199044676123
H         5.88821870693388   -0.85012797155004   -0.69814526210730
