32
 energy: -49.290765880952 gnorm: 0.133001154976 xtb: 6.4.1 (79825abcba525fcdf90b791dcacef51065a7a4e7)
C         2.21810351389934   -1.03136948753097    1.32268255177342
C         2.46227769666751    0.03947023383123    0.25857115343822
O         1.29977102487036    0.87295218567883    0.13916195320416
C         0.94291175270792    1.61362958186664   -0.93967944537187
N        -0.22085180859764    2.15685987625563   -1.01360376979815
C         1.98726057761665    1.96209282645445   -2.06031400835459
C         3.38787261971192    2.47748134725303   -1.62835272490407
C         1.28930218245159    2.94066577957259   -3.03511935299645
C         1.46372032033511    1.92222938631614   -4.17633087003244
N         2.02614873235622    0.99676601888767   -3.20505926796613
C         1.87694303297213   -0.39696901205147   -3.31338532645214
N         2.10369322347651   -1.01508166779330   -4.42956271838897
C         1.82004538535228   -1.18434825335040   -2.01795053595929
C         2.83618933110365   -0.67716356607478   -1.04840311083477
N         4.04584228379867   -1.13220712496087   -1.18697272429219
O         4.98341686668929   -0.77466127306226   -0.22757922570084
H         3.21160957182577   -1.41202596453068    1.58501158704614
H         1.53807061574246   -1.76691123545287    0.88355918776644
H         1.76167631152886   -0.50662759161299    2.16915171338269
H         3.26660977446132    0.77279073248417    0.38648048552277
H        -0.79323782377109    1.85519640951077   -0.21292406556194
H         4.12310242998156    1.67234547868500   -1.75603192699017
H         3.33519306597695    2.92067742980897   -0.62671359274991
H         3.63828014763962    3.15489128049712   -2.44912506041775
H         1.77485935785144    3.90249112679679   -3.21329556708808
H         0.23892639950077    3.18498617341459   -2.82941838649584
H         2.14476644695271    2.24058717435094   -4.97753400513815
H         0.54615878022931    1.59857836147205   -4.66881285565656
H         2.24255407965318   -0.38343721520817   -5.21496119675351
H         1.99373754305138   -2.25296586714870   -2.20850896822067
H         0.77516583744884   -1.12367662166206   -1.69883551085166
H         5.64495643084358   -1.48488568192518   -0.33551447360797
