32
 energy: -49.293525067991 gnorm: 0.125790007558 xtb: 6.4.1 (79825abcba525fcdf90b791dcacef51065a7a4e7)
C         2.32691501769188   -0.93991751218160    1.41326088335973
C         2.40881717957392    0.01490744621258    0.22151715007144
O         1.12187503196111    0.60719472016581   -0.00945506391182
C         0.93655756556464    1.51333324983651   -1.00163483219165
N        -0.19335255447525    2.12815504049251   -1.01601806175862
C         1.87484727619196    2.00796805501142   -2.16045394253820
C         3.25740651418021    2.49526650485539   -1.64567229496485
C         1.23255120132418    2.96693175284836   -3.19139562700122
C         1.63876099785157    1.98409555031760   -4.30451049061470
N         2.05535477090635    1.03434438076381   -3.28441293742262
C         1.89495085393022   -0.36233933355358   -3.27813860124627
N         1.53815641416335   -1.04401689850196   -4.32089661359870
C         2.00061820519325   -1.09263619018063   -1.95267431331203
C         3.06233669978108   -0.64461326125273   -1.00302369640921
N         4.28281809553187   -1.06476897581440   -1.15606208407799
O         5.15191962450378   -0.81528527764683   -0.10261942982619
H         3.23089598645034   -1.55919493324390    1.42242837024380
H         1.48984757018128   -1.61673100270081    1.21951538246587
H         2.24232925189560   -0.41395032747129    2.37054540307377
H         2.97750067698939    0.90647657632205    0.50922081881748
H        -0.76245257483814    1.71548964768296   -0.26398945192212
H         3.12950627436101    3.21185515572196   -0.82393581019740
H         3.80239197146022    2.94622086500348   -2.48359226182126
H         3.81495537431218    1.63655440327656   -1.26225585788528
H         1.68263447320588    3.96107069714595   -3.23302898215528
H         0.14986282382114    3.05578047366114   -3.03269336844229
H         2.49285022549155    2.25974025099507   -4.93827192949789
H         0.80007367710116    1.58937911227765   -4.87897561824382
H         1.35133178784279   -0.55282520601858   -5.19206542157713
H         2.00723268755319   -2.17889262486037   -2.12128119588836
H         1.06000264884952   -0.99918946720989   -1.40149485722922
H         5.91464583556303   -1.36276276313424   -0.37135806193585
