32
 energy: -49.288317667854 gnorm: 0.115204348077 xtb: 6.4.1 (79825abcba525fcdf90b791dcacef51065a7a4e7)
C         2.15233259145524   -0.85721271720090    1.33163085630329
C         2.55103756179296    0.08668166568749    0.19639980113281
O         1.39848381804777    0.93103410630382    0.05833715858762
C         0.93461650165329    1.63412414115146   -1.00483819679803
N        -0.30867242625974    1.91560134027763   -1.17779143244996
C         1.99648829567655    2.02273207930221   -2.09540003589297
C         3.34074391906852    2.47274074840001   -1.45947629806121
C         1.42297309684794    2.96863394961764   -3.17768759601600
C         1.62434019664812    1.80947100424945   -4.17055750921333
N         2.05793452747905    0.91839744326381   -3.10558775727452
C         1.72383567148176   -0.44302316172778   -3.21238713441525
N         1.48383056699118   -0.98482710568847   -4.36485271358732
C         1.95336061043929   -1.36390849492630   -2.02889940629364
C         2.89205329204455   -0.78659121344694   -1.02124479466097
N         4.14439547046151   -1.03904645599024   -1.26089422305736
O         5.03536550851245   -0.55697284996950   -0.31163216875895
H         3.03067936826994   -1.41798021948410    1.67047729557738
H         1.29768599630573   -1.50011513205300    1.10238990613269
H         1.86392760457493   -0.32018490629492    2.24191300026865
H         3.43678764046567    0.64801766485534    0.51486255000472
H        -0.91127783058624    1.64041632682148   -0.38984821137135
H         3.18543936377355    2.69441624314149   -0.39559233306593
H         3.59327559519488    3.42266532009837   -1.94563462859944
H         4.17641593768406    1.77410915265643   -1.55339932363145
H         2.05989821387444    3.82716120709151   -3.40102115008352
H         0.36318614148309    3.06765310604918   -2.90872393959571
H         2.48560799942440    1.96879652103813   -4.83383357042716
H         0.70188474378970    1.46514524488106   -4.63930412354468
H         1.28752413765819   -0.29301334250252   -5.08455079334138
H         2.45181503637603   -2.30767375192461   -2.29210163465114
H         0.98669189573787   -1.68798391181994   -1.63163951121789
H         5.92964596698285   -0.65884534677859   -0.69056194952317
