32
 energy: -49.289497095477 gnorm: 0.120693422988 xtb: 6.4.1 (79825abcba525fcdf90b791dcacef51065a7a4e7)
C         2.29951958847175   -0.64357091154647    1.49569610684088
C         2.56935628074796    0.11262985420311    0.19415840884063
O         1.32343050565065    0.79100058952211   -0.02459853385104
C         1.04950168732680    1.69512655692391   -0.99792764629723
N        -0.19114681312504    2.01471028166741   -1.11440574666024
C         1.97188688066172    2.13257727741202   -2.19197763480781
C         3.37164863449231    2.69477036592026   -1.81977345381156
C         1.11473878559240    2.90389189093944   -3.22414395631413
C         1.46779245914941    1.81595845487565   -4.25455748847101
N         2.12714029178086    1.04593257053347   -3.21124675566694
C         1.90218871635307   -0.34167338279886   -3.23224074545679
N         1.96421049939011   -1.09317722641388   -4.28615068605183
C         1.81048633577832   -1.13496277549479   -1.94242008646321
C         2.87883200133589   -0.89040917565228   -0.92820210690669
N         4.02939685191166   -1.48798128739977   -1.02112430579769
O         4.97800938598663   -1.04318193670401   -0.11029566180391
H         3.16695776472493   -1.29549439267908    1.64839499312865
H         1.34072306125925   -1.14975012740198    1.63987499642968
H         2.27968124513597    0.14894968495782    2.25180948286816
H         3.36961492533369    0.84711366656831    0.33972443135068
H        -0.77384791936278    1.51950326122930   -0.42524392481037
H         3.71659271739762    3.25367650137893   -2.69940186044474
H         4.16362478788175    1.95472993246761   -1.65366269524828
H         3.34264334973476    3.38757715812474   -0.97453218102520
H         1.44871968428536    3.92047245664092   -3.44241270497415
H         0.04994531038224    2.98199443810201   -2.96839119222804
H         2.11246081911537    2.06716304399330   -5.10802157053436
H         0.59403954778438    1.26357802420945   -4.60188930449549
H         1.86922749489440   -0.50864746024632   -5.11344205449890
H         1.84047695184085   -2.18855816738712   -2.25460978160626
H         0.86592419397111   -0.84075296193145   -1.47494637591374
H         5.61661161284708   -1.78051594669889   -0.06308256182383
