32
 energy: -49.285993445023 gnorm: 0.118815205232 xtb: 6.4.1 (79825abcba525fcdf90b791dcacef51065a7a4e7)
C         0.99919200198648   -1.03837307863908    0.64997943611207
C         1.90243828395563    0.07680142177161    0.12160099774240
O         1.26079193594007    0.96226856193937   -0.80824328179603
C         1.86550772307461    2.06463643769982   -1.31711871650377
N         2.49986931151173    3.00826621627884   -0.71540631921130
C         1.94220666248914    2.07097691931512   -2.88619170427121
C         3.36867142543387    2.59859470338480   -3.20359959037514
C         0.84313613150688    2.49410027911662   -3.89018720588786
C         0.57145059766213    0.99281705786919   -4.09593890573514
N         1.78283151302722    0.65978323055105   -3.36257580795843
C         2.10673969325019   -0.59320050904745   -2.81338600712527
N         1.52618587460874   -1.68181195688491   -3.20988725587305
C         3.32730173408179   -0.80755658247902   -1.93838061004397
C         3.18319802885839   -0.52301776488375   -0.47958701096750
N         4.18899789227659   -0.73105208954396    0.31704011082837
O         3.90728347772772   -0.45746879654321    1.64862194656259
H         0.17640908844556   -0.70574296022845    1.29275127387167
H         1.69851580831197   -1.61994432031368    1.25744699706239
H         0.54510950325128   -1.68795842026702   -0.10635240133357
H         2.23877086653368    0.67633164388032    0.97513115921063
H         2.84168254245549    2.84104202769301    0.24110524163470
H         4.13313465068782    1.88402146087195   -2.87180193708954
H         3.45409542692677    3.56788177430515   -2.69796713501499
H         3.35665403120977    2.76111309425222   -4.28466329496909
H         1.25187373041570    2.97015672160426   -4.78401289785078
H         0.01730310516997    3.07634777308715   -3.46090607449471
H         0.69212509008339    0.66294959555823   -5.13696104755221
H        -0.27037772047004    0.54408056060263   -3.56757509797029
H         0.65099478338500   -1.56509473731025   -3.71538251859874
H         4.10417826688990   -0.12211604916754   -2.30588462658381
H         3.58128917851999   -1.85592504000860   -2.12196346377228
H         4.80166982789408   -0.56178472640184    2.02663592359571
