32
 energy: -49.289201766075 gnorm: 0.128308622718 xtb: 6.4.1 (79825abcba525fcdf90b791dcacef51065a7a4e7)
C         1.90221994118157   -0.83707130462342    1.33227181251153
C         2.34911068220485    0.16287576879227    0.26501067521869
O         1.14575884030337    0.85035150553611   -0.10874586584723
C         1.09944814799134    1.74190206928918   -1.12994283784250
N        -0.06502415109624    2.25487587030827   -1.31907708935660
C         2.16583229245249    1.96896354545691   -2.26095164718595
C         3.56701791065917    2.27508119530963   -1.66353986733593
C         1.77386262655239    2.88320835163240   -3.44649482153646
C         1.29840721754563    1.62598190869131   -4.19704257389493
N         1.92138359415712    0.80441597943244   -3.17083277546961
C         1.66908675666062   -0.57622356050912   -3.08913227851103
N         1.08232149953553   -1.26514905318730   -4.01672004484250
C         2.16121992253379   -1.35847883555252   -1.88612092313356
C         2.99363716446839   -0.64540044975184   -0.87201650337193
N         4.26957250340179   -0.88395425408819   -0.93989529616565
O         5.16274674970353   -0.18998473826716   -0.13493126370870
H         2.71189900716830   -1.25686410354986    1.93969586418676
H         1.30245253276213   -1.64179757191624    0.89754152280522
H         1.22971927896528   -0.33741721141582    2.03816028651261
H         3.11987710570950    0.73915208567429    0.78931455859605
H        -0.66278230536141    2.04998785168961   -0.50641437867633
H         4.26030582473647    1.54821179931730   -2.10639579607375
H         3.66006287786603    2.36156595614942   -0.57434664708945
H         3.76586610684322    3.28626979369415   -2.02852259230615
H         2.63402105888951    3.40532862048372   -3.87092200093587
H         0.98013541631506    3.60598951339291   -3.21654018047181
H         1.75980194584277    1.62829535762559   -5.19414413626056
H         0.21193878146341    1.53240772097261   -4.19088767607513
H         0.74034451907758   -0.84035142871896   -4.87561848864928
H         2.84959920384159   -2.13283268067641   -2.25345616133071
H         1.26211629984676   -1.72848321215195   -1.38412674522587
H         6.04256716289975   -0.48320640359728   -0.44093848309037
