32
 energy: -49.287285894930 gnorm: 0.129444301596 xtb: 6.4.1 (79825abcba525fcdf90b791dcacef51065a7a4e7)
C         2.02237753075367   -1.13708099061710    1.24459094356437
C         2.36348564940368   -0.05030703159380    0.22418934115455
O         1.13637106217408    0.64115477772507   -0.05229366306797
C         1.05092032738333    1.70611342928406   -0.88800387400360
N         0.16710991295490    2.60639382582393   -0.63644085707192
C         1.96969687153609    1.94232247504375   -2.14018911277145
C         3.40602850588515    2.40981671027337   -1.77641644664093
C         1.20572749817767    2.91049009009920   -3.07506807288334
C         1.26047169082041    1.87461926044303   -4.21259732426061
N         1.93937991082606    0.98014435818293   -3.28784062227938
C         1.92234788369202   -0.42500866475545   -3.32966274281722
N         2.01658359906259   -1.06689324160896   -4.45146249921170
C         2.07403198362015   -1.26837264471884   -2.07783055278998
C         2.96903544375286   -0.65244690217529   -1.05342275783662
N         4.22129626074247   -0.97525742983822   -1.18442909538664
O         4.96728936917891   -0.56714439136364   -0.08704171866491
H         2.79775388262452   -1.89880148104218    1.38367210497524
H         1.16520664426013   -1.73255686552398    0.91754004823904
H         1.75830329103680   -0.73565237589762    2.22912624111445
H         3.15671668302264    0.55333153681604    0.67968341036754
H        -0.48603435291662    2.52895465843978    0.15546843162233
H         3.80866821011688    3.03755801583009   -2.58197882212836
H         4.03793682813419    1.51372330947718   -1.79010404179683
H         3.39687328704390    2.82250456311673   -0.76406261201785
H         1.55587734017603    3.94112362005382   -3.16344310772835
H         0.19412638080215    3.12208608900090   -2.70468321567312
H         1.88783828165150    2.05408587490358   -5.09651183814813
H         0.28088658084333    1.48035704636815   -4.48495369312641
H         1.96300884293426   -0.48336525308092   -5.28316716660698
H         2.49892437255741   -2.26096609252546   -2.28434881146546
H         1.06816574719127   -1.27694951098347   -1.64719349239396
H         5.83384470302290   -1.01270509015004   -0.15231683252219
