32
 energy: -49.280489101353 gnorm: 0.122026148354 xtb: 6.4.1 (79825abcba525fcdf90b791dcacef51065a7a4e7)
C         2.11682332325928   -1.04011663331088    1.11696065097457
C         2.42440633514367    0.06190294730775    0.10226987947293
O         1.11925722321509    0.57554098451182   -0.20290920424665
C         0.98603011877493    1.60759959959070   -1.07294133141124
N        -0.14377748737160    2.21947110555582   -1.13664102965356
C         2.10887545985232    2.03524171280341   -2.08499545518154
C         3.59174613755427    2.38534710969880   -1.78093831574367
C         1.59923319293307    3.04241354853528   -3.14370507581953
C         1.21815708458124    1.83471531035347   -4.01905875786826
N         1.81871792521075    0.92881849344022   -3.05218010372897
C         1.64480900219899   -0.46421725699294   -3.12768704390622
N         1.09940684071376   -1.11448254296622   -4.10698394123631
C         2.38783812843088   -1.33391059405670   -2.13124541190024
C         3.14793126506623   -0.57163673735506   -1.09635216438486
N         4.41668936097013   -0.83576786070042   -0.99628170783163
O         4.93039129161226   -0.39458532564762    0.21565447957404
H         3.06520382442971   -1.58427101547639    1.18935263784868
H         1.35958251410636   -1.66508880074953    0.63499396606753
H         1.69292093627551   -0.79841049335761    2.09781476737371
H         3.08230732445738    0.85960428082984    0.46546227885007
H        -0.93221302628195    1.82700635897803   -0.60367254025877
H         3.66808698873785    3.47101814290679   -1.63741444258730
H         4.14072475021653    1.91461989110229   -2.60526666762849
H         3.93751891725642    1.85794579095546   -0.88788490146969
H         2.37808433272132    3.70178646754766   -3.53259939397938
H         0.75120132479049    3.69724319458269   -2.90425839699652
H         1.69141563462536    1.70455615769511   -5.00200683248009
H         0.13947507948583    1.69224993607790   -3.94587113545900
H         0.70991637574098   -0.52294361171850   -4.83738567380941
H         3.01464315241143   -2.02178127644763   -2.71637315368980
H         1.62713075721838   -1.91831648768187   -1.60485888953942
H         5.89892096154903   -0.51969943496743    0.21590238299437
