32
 energy: -49.288419942541 gnorm: 0.122415172684 xtb: 6.4.1 (79825abcba525fcdf90b791dcacef51065a7a4e7)
C         2.17039625581186   -0.99133826713275    1.29215189570788
C         2.51291563649473    0.02875415016396    0.20553157082209
O         1.31484083983030    0.80624090731737    0.06234085002972
C         1.00552076094837    1.62354161504986   -0.97505537477694
N        -0.14826528926615    2.15137492708198   -1.18737428914102
C         2.03404718868322    1.90864871279433   -2.12777400244924
C         3.43881762692856    2.35001936454735   -1.63205037389010
C         1.42573767420779    2.93536190265541   -3.11307393000568
C         1.40426095222634    1.82175617313376   -4.17581525743287
N         2.05807411352137    0.91313071950818   -3.24678090905531
C         1.71298610273298   -0.44948999972085   -3.22083430564341
N         1.31060303563739   -1.09169648974389   -4.27201913580955
C         2.00226778937011   -1.31265477487149   -2.00731984449773
C         2.98388601258474   -0.71075273151149   -1.05655878941952
N         4.25517739271836   -0.96338896562797   -1.15412711595128
O         4.98369194625653   -0.33776141887457   -0.15154159070518
H         3.04523487683385   -1.25188053972332    1.89840701550141
H         1.90843322177343   -1.98256744620368    0.91118495268047
H         1.36322289362654   -0.51945682156548    1.86310631835035
H         3.35557468197346    0.62239473806339    0.57780352508690
H        -0.73316257442294    2.09489787086757   -0.34214053933136
H         3.43328287381661    2.58587805759935   -0.55992694101118
H         3.63732366387124    3.31135730294604   -2.12082800778057
H         4.31195760600083    1.71303903288848   -1.79678648363399
H         2.11565879580541    3.74630239628453   -3.35598315616132
H         0.48365940346026    3.39443860089969   -2.78591687342969
H         2.09517623593533    2.06920903119873   -4.99343688679857
H         0.40856578489749    1.64259032840758   -4.58287594109432
H         1.24666201946748   -0.58074613376012   -5.14948656739480
H         2.33512443623557   -2.27118536573262   -2.43022720351923
H         1.00246688077724   -1.48583256378296   -1.59781245494138
H         5.83030609712351   -0.82106197851705   -0.09350391896963
