32
 energy: -49.288507813255 gnorm: 0.116110157358 xtb: 6.4.1 (79825abcba525fcdf90b791dcacef51065a7a4e7)
C         1.89486834677079   -1.13863834038913    1.14970898224449
C         2.35576130798055   -0.06096852455810    0.16743749918471
O         1.10952868403490    0.57400827049269   -0.15517870455887
C         1.09003263903342    1.62281087161500   -1.01511087721445
N         0.03191159653217    2.35312216276152   -0.97112351341956
C         2.16277807148775    1.92221290643227   -2.12303173032773
C         3.54139141810625    2.44409117185922   -1.63211596351505
C         1.53782141881055    2.94161065343735   -3.10550504987840
C         1.51121762070354    1.83418505836965   -4.17456954397084
N         2.07354024261152    0.89858286391540   -3.21299869969128
C         1.78861888345114   -0.47790049055546   -3.23764793299473
N         1.00338816397875   -1.07857983368517   -4.07545931373017
C         2.32392086920569   -1.41158867096451   -2.16852079139035
C         3.02756237854640   -0.78242715537670   -1.01143331598198
N         4.32593943112142   -0.83287733846299   -1.04604905607968
O         4.92811303469097   -0.14114632523373   -0.00383210239896
H         2.66359133253941   -1.86464661820433    1.43736696318432
H         1.04620081730602   -1.61615306726145    0.65167399602657
H         1.38359867156117   -0.71579010066230    2.02148451277236
H         3.08938607828860    0.64261795843862    0.57710882501222
H        -0.67824626643186    2.06212261595177   -0.28504067543878
H         4.01153781436965    1.94413233234614   -0.77531252350714
H         3.21610858299422    3.41119923473687   -1.23040470072526
H         4.21461483351307    2.41630462348056   -2.49307677143759
H         2.24703555709325    3.72288406042155   -3.38701473830432
H         0.54294699526193    3.33750780691500   -2.86304896473392
H         2.20369857766799    1.94390747706596   -5.02046143493111
H         0.49689719591690    1.56194045369392   -4.46824389577653
H         0.58162825610456   -0.39791238418545   -4.70308836501848
H         2.98090210691566   -2.15896249970060   -2.63567503878882
H         1.50985845925345   -2.07693327221569   -1.86535801915458
H         5.88528746665358   -0.02861920143735   -0.16149654331845
