32
 energy: -49.288863390370 gnorm: 0.118762661499 xtb: 6.4.1 (79825abcba525fcdf90b791dcacef51065a7a4e7)
C         2.46105293240284   -0.70242402838799    1.47917356852510
C         2.64086404192637    0.13208298406608    0.21034819883279
O         1.43097300078611    0.90306523736749    0.16427750634937
C         0.97420884749392    1.56943583792780   -0.92529443934964
N        -0.29597466067071    1.76321971173215   -0.98847071572484
C         1.87319288032847    2.02021535958386   -2.13216578026376
C         3.27741395620952    2.49543550190793   -1.66712926328404
C         1.18353488069275    2.91648257513060   -3.18860948001209
C         1.51421168197725    1.86597501594715   -4.26428825180286
N         2.12378975034493    1.03810498874248   -3.23510289364681
C         1.96917658218936   -0.35507644655067   -3.34296612686546
N         1.86211869292517   -1.01666747383876   -4.45209497063023
C         1.75042209324276   -1.07274612655295   -2.02446265138594
C         2.81938705671349   -0.75582669767567   -1.03114346705386
N         3.99738557190539   -1.28622972819623   -1.17438648176107
O         4.91947415021521   -0.89083409165117   -0.21483660603255
H         3.44142413410492   -1.06985349965912    1.80265162392311
H         1.80349366441838   -1.55687577634615    1.29526122028838
H         2.10689817115635   -0.09158822905248    2.31681544831284
H         3.54803592822232    0.72770820129136    0.36312122964877
H        -0.91655703055134    1.52731900496149   -0.20174143897547
H         3.31620356854851    2.83517335532626   -0.62396955756853
H         3.57221042881970    3.37972639124394   -2.24471347287810
H         3.96845132966004    1.64838448744390   -1.65205295451971
H         1.67114447884062    3.88304360014542   -3.33219635531138
H         0.11510082021670    3.14014021598731   -3.07147479258340
H         2.27011962181840    2.21173078515369   -4.98272969936496
H         0.79870143918112    1.28497009175761   -4.84711416691193
H         1.85269046528877   -0.41352318451133   -5.27138484338788
H         1.62586925878512   -2.15260627476923   -2.18821164433675
H         0.82689150792989   -0.58716372032027   -1.69493312339346
H         5.57247259855644   -1.61651782032305   -0.18876985468381
