32
 energy: -49.288457443316 gnorm: 0.120567055398 xtb: 6.4.1 (79825abcba525fcdf90b791dcacef51065a7a4e7)
C         1.95672981909736   -0.66302208164116    1.36503878961682
C         2.51068661844553    0.26821732740090    0.28588317166979
O         1.38586753594524    1.13913035334282    0.09440205331545
C         1.02971987088911    1.71196118534454   -1.08240464774010
N        -0.10879793832571    2.26731131151154   -1.30662116578014
C         2.03373567414121    1.86921985624320   -2.28037583303719
C         3.46633347900991    2.14471787261742   -1.74587196282156
C         1.46649265098213    2.79892413972747   -3.37986740160887
C         1.61403250792219    1.64989335616829   -4.39375021153812
N         2.02206393871685    0.77618981939504   -3.30456282273208
C         1.76742133532659   -0.59780807231116   -3.15035142934404
N         1.30610582781537   -1.39065328042032   -4.06572859124348
C         1.93165286158522   -1.20712786238543   -1.77081814200824
C         2.97462159729483   -0.63067986770763   -0.87096763583279
N         4.23413687656130   -0.91732239769670   -1.01582531030022
O         5.09487188689308   -0.35629175222122   -0.08217608694143
H         2.81088523895902   -1.13647217687656    1.86206362894573
H         1.38618020554045   -1.53233666732104    1.02583232892167
H         1.33775988989539   -0.02892695630420    2.00923556893934
H         3.27010397068091    0.88214386993482    0.78332595096639
H        -0.86320439941846    2.19712031350199   -0.60972899377903
H         3.30187806640481    2.53875455560954   -0.73453713202804
H         4.07560376565578    2.73762803019467   -2.43849460604856
H         3.95023174860798    1.16703446071225   -1.81821137193618
H         2.16302155390979    3.63402890497336   -3.48020710993109
H         0.41961172810734    3.05409418416999   -3.16957423933875
H         2.38443223663197    1.72946172260571   -5.17301596035141
H         0.69647780933257    1.40774944231426   -4.93102795264678
H         1.09734651642974   -0.83520687722541   -4.89217076565955
H         2.06677165353015   -2.28896015079344   -1.91155511139452
H         0.98754439664905   -1.11813368468035   -1.22489877018862
H         5.92142812894843   -0.86062765502010   -0.20927210947554
