32
 energy: -49.297619999473 gnorm: 0.119912924036 xtb: 6.4.1 (79825abcba525fcdf90b791dcacef51065a7a4e7)
C         2.38730863730230   -0.72941768975633    1.45465790402770
C         2.52704207786876    0.09700316181582    0.17553517715833
O         1.31547436097391    0.86428595670374    0.11427130530599
C         0.91757971477225    1.59171996646299   -0.95921364023989
N        -0.26908187966150    2.08807035415874   -0.93971608319900
C         1.82043772126940    2.02891713186507   -2.16818799897120
C         3.20455384451916    2.52289327870340   -1.66406487761239
C         1.23340133676973    3.04172149491008   -3.18041919588662
C         1.47954996264014    1.97632721942668   -4.26409072993097
N         1.98512241038707    1.03512252163213   -3.27681827317097
C         2.01245660603203   -0.36996694335322   -3.31516728713839
N         2.07291572529914   -1.08260369102990   -4.39582654665239
C         1.87417759673450   -1.18686393305603   -2.04437504152132
C         2.88872170197092   -0.79839361222271   -1.01987609068105
N         4.01969048159072   -1.43326897758666   -1.10572089093572
O         5.02626065091393   -1.07163957964326   -0.22064366736542
H         3.33461968507179   -1.13774090298718    1.82431192122348
H         1.60212831616849   -1.48612360864781    1.36990091199755
H         2.07548039439621   -0.05144088636274    2.25671805848946
H         3.37590247906059    0.77836511094019    0.30301753830570
H        -0.76426046481987    1.77912268629627   -0.09173961094906
H         3.03918551865763    2.79975768523365   -0.61472792320646
H         3.48482385312374    3.47984446710357   -2.12032358163344
H         4.10049996257771    1.91648925123512   -1.82157701369801
H         1.72240626186153    4.00847099052868   -3.31786054970972
H         0.17952979126256    3.19478151619990   -2.91354464805163
H         2.27799122958759    2.23757245824132   -4.97214753883151
H         0.60992355587800    1.63930409099377   -4.82922168343236
H         2.10535379821638   -0.53683402295201   -5.25384231767604
H         1.93109131652899   -2.25696893806015   -2.28944889687309
H         0.86047165711214   -1.04777915184247   -1.65663232963575
H         5.60302573074136   -1.85107404681917   -0.33695049399030
