32
 energy: -49.287646144464 gnorm: 0.122813110515 xtb: 6.4.1 (79825abcba525fcdf90b791dcacef51065a7a4e7)
C         1.87177705716002   -0.91432913138987    1.22485294358204
C         2.35504775479939    0.17124904511815    0.26224125063833
O         1.26657443503424    1.06392495311416   -0.01834388316127
C         1.05206161526145    1.95722021106496   -1.01627080682173
N         0.14094715374407    2.86418687710250   -0.96945730543511
C         1.93826761041194    1.99338300152446   -2.31289879500449
C         3.39948789880698    2.33916428132942   -1.91389933171298
C         1.27416808794508    2.83739861061246   -3.42717249419429
C         1.24423764366412    1.55301084722300   -4.27537668352174
N         1.89136737651047    0.79761951323031   -3.21387598539931
C         1.92117017656070   -0.60415781415010   -3.11079195555059
N         1.68946328618299   -1.38174282023585   -4.12123955404217
C         2.17212550772186   -1.37856353984776   -1.83068575269575
C         3.02858265979842   -0.66428518996108   -0.83766278667491
N         4.27827293624380   -1.00797405811524   -0.93604269213475
O         5.17047220633791   -0.59167187829640    0.04272897321256
H         2.61892125071166   -1.47362690074036    1.79907565280048
H         1.24402277379598   -1.65169861516954    0.71641756062903
H         1.19164956177114   -0.45224373457425    1.94879601285019
H         3.18594713025869    0.59837156481255    0.83516568979661
H        -0.54046639259869    2.78393451115731   -0.20202670822971
H         4.16543968752384    1.55461015046296   -1.96776296750919
H         3.41933815528485    2.74811825575509   -0.89662774836407
H         3.79499015966288    3.05888610053883   -2.63558751746721
H         1.88178249353215    3.63560903780100   -3.85878039670522
H         0.31726567900971    3.25849408248138   -3.09204414093521
H         1.91859003679135    1.66113509871174   -5.13599272612416
H         0.24232210663883    1.19043540478155   -4.50756621919354
H         1.51794679598221   -0.96271691189067   -5.03234174410025
H         2.62400458603258   -2.32828157011428   -2.15047638673663
H         1.18356492966617   -1.56249562458750   -1.39917017489083
H         5.98653355167364   -0.98499493469691   -0.32202324073696
