32
 energy: -49.288385402810 gnorm: 0.130699853197 xtb: 6.4.1 (79825abcba525fcdf90b791dcacef51065a7a4e7)
C         2.13786662768183   -0.89232907920943    1.47597118691922
C         2.42792895869816    0.12589839140903    0.37246384354744
O         1.25933877884113    0.92753559735066    0.14410613368442
C         0.91804087286789    1.56851053259991   -1.00154527889231
N        -0.30455156825928    1.91115291890525   -1.20836281400335
C         2.00306760818691    1.93040711513250   -2.07842073292943
C         3.38584713961133    2.48994641894213   -1.64394805274704
C         1.47867045161139    2.87646110300476   -3.18521152459117
C         1.74904036708418    1.78090463484020   -4.23242412836012
N         2.25181881712322    0.92988734530516   -3.16510968949515
C         1.84378857094079   -0.41524775281251   -3.14026776090472
N         1.53082907306811   -1.10212460302369   -4.19363731992708
C         1.75308525077680   -1.13606081009078   -1.80851847872504
C         2.81527926864734   -0.73996792532862   -0.83658159208672
N         4.01187267427494   -1.03623764853970   -1.24878893102099
O         5.19208659068187   -0.53635186480978   -0.71537509449172
H         3.13207155242776   -1.21220227072446    1.80764553019192
H         1.51883878106680   -1.71582693273934    1.10861367710222
H         1.60714174969639   -0.47908704359179    2.34069773743042
H         3.19943807420055    0.85466975660941    0.64584234675372
H        -0.78266858862174    1.59301357517537   -0.35401741369229
H         3.98727986149127    1.57601988871147   -1.55380592271989
H         3.33132195277132    3.03465916612483   -0.69379339161754
H         3.74594647639837    3.21302826656463   -2.38065456000122
H         2.07758956743038    3.78636302003799   -3.26263841538966
H         0.40975979494269    3.11831031711196   -3.25027753189766
H         2.55425390002820    2.07101913258876   -4.92131216316991
H         0.88799465489122    1.32689554994367   -4.72403750422941
H         1.61913524107043   -0.53106085845929   -5.03101181471881
H         1.81956938177929   -2.21005363194370   -2.03333921485251
H         0.77965469992724   -1.02619681419629   -1.32102326994520
H         5.82540000160721   -0.90395333491799   -1.36150712888358
