32
 energy: -49.292411769917 gnorm: 0.117469558263 xtb: 6.4.1 (79825abcba525fcdf90b791dcacef51065a7a4e7)
C         2.11031101083013   -1.09754264334307    1.29543880007560
C         2.40961517288642   -0.01936285106990    0.25303908444065
O         1.14614678567074    0.55976163830181   -0.10561806676218
C         0.94524366520922    1.54006293040550   -1.02131322885161
N        -0.20092563248004    2.12277522790907   -1.06195703696905
C         1.97037046808844    1.96076624336869   -2.13488258192304
C         3.32127818677407    2.51946451413918   -1.60873186029679
C         1.49562725951355    2.96969733846627   -3.20804301739758
C         1.80318458207443    1.84143990455971   -4.20926315349964
N         2.22682010631437    0.91213818688748   -3.17335389912467
C         1.70353980669533   -0.39251681976729   -3.14995935696368
N         0.98999370097135   -0.99555498859806   -4.04802829440686
C         2.08167066537833   -1.24847367435173   -1.95592851349877
C         3.05410508659077   -0.67853914667374   -0.97646285330067
N         4.30561567998125   -0.96555916413189   -1.17861919878357
O         5.14736011268059   -0.34191778656923   -0.26765335699685
H         2.94996107794374   -1.42819119798853    1.91707330554988
H         1.69081875849447   -1.94371300352279    0.74378881496459
H         1.37976944615141   -0.77259597377074    2.04437709696687
H         3.05223976477157    0.80897789997425    0.57234313036911
H        -0.77082382608919    1.84368942389802   -0.25137591815907
H         3.26102754966138    3.37317796557468   -0.92123508000421
H         3.85414619676749    2.81783978185679   -2.51950227581362
H         3.94076945699653    1.74903416473716   -1.14190961001549
H         2.09888709803072    3.87946837664022   -3.23989825846473
H         0.42820846618025    3.22359810804651   -3.17001482391666
H         2.61846840041452    1.99240511147712   -4.93011250339400
H         0.99478546124751    1.40455380969508   -4.79648464903833
H         0.59386855805712   -0.43737864153780   -4.80077782746538
H         2.47383688520198   -2.10720312308929   -2.51914649299585
H         1.17610913996743   -1.57347359431766   -1.43475473925434
H         6.04419683766311   -0.35970396536225   -0.65375031857073
