32
 energy: -49.288838471738 gnorm: 0.135172647427 xtb: 6.4.1 (79825abcba525fcdf90b791dcacef51065a7a4e7)
C         2.15110557340592   -0.86950811453185    1.31140259965586
C         2.56221433918910    0.16013435779086    0.25808508058042
O         1.33316280199182    0.88645049773413    0.10885474983630
C         0.97562879793704    1.61926376887531   -0.97512148864701
N        -0.22401788756872    1.97941871854756   -1.26845722590296
C         2.02891742014024    2.01732362181800   -2.07058687775639
C         3.41529806858632    2.45686093603060   -1.52406547529299
C         1.39144505581025    2.91598363626507   -3.15734148294343
C         1.68418454229420    1.80336719389899   -4.18027175893222
N         1.96965376932134    0.90509825663361   -3.07221177346575
C         1.77106541832706   -0.48557096719320   -3.12785345408299
N         1.75027613879930   -1.24866108665715   -4.17503641310577
C         1.67724371363146   -1.14489395382792   -1.76482542350868
C         2.86570722676891   -0.70649070563376   -0.97415220786972
N         4.05690918899788   -1.02806976548203   -1.38299355619575
O         5.13856029424341   -0.58878724148893   -0.63173942211875
H         3.02876876261565   -1.35936706563214    1.74788364245331
H         1.41043415917235   -1.55960463192456    0.89731518070485
H         1.68459796777793   -0.34481812588540    2.15239068739145
H         3.31730534999817    0.83298345627533    0.68020058338553
H        -0.85447869729151    1.81634578459122   -0.47118627052586
H         3.79860696275459    1.58193892721975   -0.98305309461070
H         3.18388994101871    3.30390222377317   -0.86721678529104
H         4.02905944662405    2.77654254012439   -2.37044365023131
H         1.80825921844546    3.91091700015088   -3.32761798630783
H         0.29852533204276    2.96866439874489   -3.06764284072497
H         2.58566334429342    1.95013348169367   -4.79092518265488
H         0.79804542873665    1.54160591958738   -4.75944891606074
H         1.82530852773675   -0.73670322872795   -5.05103704917579
H         1.77806926084166   -2.22280301829297   -1.95553817788810
H         0.80777868982393   -0.94758054026395   -1.13048583812121
H         5.88100496158063   -0.84452975001680   -1.21232103488484
