32
 energy: -49.291639482907 gnorm: 0.120751409972 xtb: 6.4.1 (79825abcba525fcdf90b791dcacef51065a7a4e7)
C         2.15895253259111   -0.46941467677345    1.60860965439277
C         2.41795888053612    0.24033974660300    0.27901717383059
O         1.28017080840533    1.04798896899746   -0.05790045509927
C         0.96775269460875    1.86341405526216   -1.09584416099008
N         0.00515231854424    2.71335146883957   -1.01892543679420
C         1.84646551682325    1.98209964570327   -2.39264423055518
C         3.24135903173426    2.53265353248863   -1.98632847883836
C         1.35456464144043    2.71000986143634   -3.66668372309523
C         1.73334709032002    1.46640119785779   -4.49128026053223
N         1.96752159667880    0.75550793654410   -3.24389509685930
C         1.86346141215644   -0.63402392905406   -3.05716840892631
N         1.89590906819422   -1.51647721477088   -4.00561672943360
C         1.76190132241648   -1.28176697391213   -1.68915189317527
C         2.84017847350061   -0.78856219392851   -0.78147659239147
N         4.04892383592889   -1.25348899180572   -0.89240064870857
O         5.05462299425570   -0.78499901651978   -0.05789039772643
H         3.01549330858781   -1.08399385343738    1.90760880715124
H         1.24078218376720   -1.05522827081116    1.70901568272727
H         2.03288651061798    0.23541380047584    2.43777433086373
H         3.28014354254904    0.84517391518572    0.58213936640407
H        -0.63520691905233    2.54051975486261   -0.23166193006293
H         3.95768485949472    2.49815098014000   -2.81746956381024
H         3.69752235167512    1.81276645772962   -1.29628754645338
H         3.11413446312729    3.54946850853242   -1.60533427446940
H         1.88984634669852    3.61959865840974   -3.94729420754065
H         0.27895207761883    2.92206021386057   -3.60848676233457
H         2.67507168140024    1.53750333351669   -5.05270813143511
H         0.91425846373722    1.12607863461774   -5.12569498531857
H         1.77755584748075   -1.04307228636894   -4.89835863760330
H         1.78814062584890   -2.36881580580987   -1.85058739096097
H         0.79250321943056   -1.01133513386399   -1.25970730401426
H         5.84326594785357   -1.20065236419134   -0.45661073724476
