32
 energy: -49.290526645944 gnorm: 0.126137176699 xtb: 6.4.1 (79825abcba525fcdf90b791dcacef51065a7a4e7)
C         2.06169403252107   -1.01839830293585    1.35838671480209
C         2.40545523458754   -0.06424364669470    0.21380428936346
O         1.14773848682279    0.56144533669831   -0.08121156105848
C         0.97338100962138    1.58400896505751   -0.95517574978831
N        -0.03713468401043    2.35838520834291   -0.77048936493615
C         1.91366092818506    1.98052643835838   -2.14956282854587
C         3.21103558530311    2.54963451114372   -1.51170314139544
C         1.21698475322310    2.91478960950101   -3.16779218580043
C         1.65046416963012    1.92027501149413   -4.26005333179997
N         2.15396411635597    0.99778759756420   -3.25422955818589
C         1.92554329931473   -0.38769909442978   -3.32311171185854
N         1.53664396245883   -0.98346617038885   -4.40623209268669
C         2.09832825049659   -1.22682342760782   -2.07116507233003
C         3.02216134518748   -0.83031630323945   -0.96702671578492
N         4.26192992219710   -1.11976894397083   -1.22916687397864
O         5.13245233832202   -0.74877899029854   -0.21335282018169
H         2.96701707997836   -1.31004443518250    1.90254006864015
H         1.56150989169852   -1.95097063421845    1.08194431403233
H         1.45142119299287   -0.55446413223269    2.14102458328729
H         3.07926755533596    0.70261856231593    0.61251362601665
H        -0.48490171871574    2.17421800211783    0.13797181174283
H         3.01127683537897    3.46469445373562   -0.93910348917351
H         3.78194896244488    3.04705355516203   -2.30486836426113
H         3.79487314734898    1.86933418274991   -0.88593918760097
H         1.60877822583200    3.93375537771106   -3.19655273499256
H         0.13353164590832    2.91068642254658   -2.99057154295387
H         2.49303397671422    2.14940032054215   -4.92689640899074
H         0.83039710246478    1.56338745192157   -4.88401562841791
H         1.31538038969894   -0.30356296081312   -5.13002894178688
H         2.42997079489267   -2.17598640890433   -2.51560623031059
H         1.06461234121985   -1.40531976417345   -1.75994298712709
H         5.97159984251349   -0.73129552415390   -0.71258134290892
