32
 energy: -49.286502213362 gnorm: 0.141428238744 xtb: 6.4.1 (79825abcba525fcdf90b791dcacef51065a7a4e7)
C         2.32569129206628   -0.83295901300565    1.56138038697543
C         2.41627012653794    0.07028050760230    0.33068722709474
O         1.17162189019680    0.74489102829980    0.09378238966950
C         0.95765848604124    1.60372387202298   -0.93406785271856
N        -0.16163464241037    2.23781813168014   -0.93818570798506
C         1.93874383139500    1.87009599256674   -2.13174492104471
C         3.38191705542516    2.41979215800480   -1.96140657518983
C         1.22831952043932    2.85257390778275   -3.09353016949093
C         1.58457517823996    1.94143805995729   -4.28218969965179
N         1.94523404167812    0.93157353665599   -3.29919656279958
C         1.97646400334310   -0.47390567729961   -3.28706873717921
N         1.95049142937925   -1.16330653669777   -4.38405677508925
C         1.84419641657862   -1.17134428384574   -1.94638257667333
C         2.81077257142687   -0.80627869391615   -0.86829877422665
N         4.04987020439119   -1.06045917888943   -1.16755749636793
O         4.95821249879673   -0.60604898473186   -0.22111855218757
H         3.19343334156208   -1.47381191439570    1.75399776593018
H         1.47748999334384   -1.51781838999513    1.47296136253589
H         2.12573385878696   -0.30968477070432    2.50286377996561
H         3.19891561055504    0.83308916575892    0.41228893284687
H        -0.69624568468039    2.12104833083793   -0.06625082925993
H         3.94952844837513    1.65783943312815   -1.41153934199859
H         3.47822325939748    3.35379364209843   -1.39497458771896
H         3.84141589398736    2.56157201563945   -2.94324905639485
H         1.68665496789922    3.84373901365427   -3.08166049093675
H         0.14704883735033    2.98691404042439   -2.95898994888975
H         2.50918815041132    2.16807922922646   -4.83066632527716
H         0.77862383979505    1.69324780869518   -4.97360253459994
H         1.92522691391684   -0.59875318764235   -5.23007630315810
H         1.97774917860655   -2.19161658863250   -2.33320706110869
H         0.82918270600951   -0.99252488909987   -1.57887813727117
H         5.69155781576538   -1.13528452386428   -0.58965310289655
