32
 energy: -49.282657464406 gnorm: 0.135074738099 xtb: 6.4.1 (79825abcba525fcdf90b791dcacef51065a7a4e7)
C         2.01022504257438   -1.11230218535868    1.42341068371405
C         2.33311260489145   -0.09023653877867    0.33264158079603
O         1.10721945822767    0.56329040518785   -0.02855229496536
C         1.00659210251492    1.51364097155054   -0.99113124972811
N        -0.18007115664215    1.98859099683150   -1.13660420400375
C         2.08059571983923    2.00320331866276   -2.02783654270767
C         3.56517715241578    2.29631478634884   -1.67565248582802
C         1.47152881401060    3.01503089097047   -3.02795596789937
C         1.67833520603455    2.04003274620346   -4.20124529096963
N         2.06007198354173    1.06276001384567   -3.19357881451132
C         1.77988665471679   -0.31485356711703   -3.20666417439652
N         1.39285715676768   -0.93333721333934   -4.27765298276963
C         1.95036272276580   -1.16856873741074   -1.96430229974783
C         2.92918599629725   -0.60821985475415   -0.98567000521558
N         4.16665409458930   -0.91410687201721   -1.23989879841332
O         5.10907924287193   -0.47264854402727   -0.32105691622663
H         2.87417785922303   -1.23859000612287    2.08553384208574
H         1.61761148092938   -2.06432090676724    1.05488568561191
H         1.20799463145849   -0.67026859553736    2.02442862111603
H         3.13489225067544    0.58091089642779    0.66094076869669
H        -0.86233946425169    1.61365529198847   -0.46307041873017
H         3.94188859065477    2.98440830385129   -2.44358765461538
H         4.21576405103848    1.41412424186955   -1.70656175395629
H         3.59763222066348    2.72930231750688   -0.67229620106478
H         2.06166109755065    3.93143848082210   -3.09549520933275
H         0.38659430038463    3.10529867508437   -2.88631043380551
H         2.44068577221353    2.17995601907972   -4.97992691150796
H         0.80894226793296    1.69269587691486   -4.76045964468096
H         1.28047594097118   -0.21758519344715   -4.99191997526217
H         2.40171868850454   -2.09244786465001   -2.35308275784610
H         0.97803593720340   -1.46198432394202   -1.55714553561484
H         5.86620147951784   -0.50053254728603   -0.93724822212226
