32
 energy: -49.291037737677 gnorm: 0.119774274299 xtb: 6.4.1 (79825abcba525fcdf90b791dcacef51065a7a4e7)
C         2.28614259476559   -0.94816806574714    1.34404780841077
C         2.47795505086138   -0.00425560905303    0.15623929726506
O         1.20126521388306    0.64228432456047    0.04478684620597
C         0.86716273948907    1.58475674063880   -0.87171278829571
N        -0.19198437867747    2.31312070427226   -0.92273142727591
C         1.86868951032955    1.92495721052704   -2.03322933643136
C         3.18828816344779    2.49584639885133   -1.44443828330499
C         1.33814094182139    2.88138945717588   -3.12810465239400
C         1.81490342698272    1.88269978844434   -4.19829836458547
N         2.11340277058566    0.93797608756081   -3.13313548148318
C         1.73789278369232   -0.41212339877740   -3.24590887910112
N         1.54974004952088   -1.08127597263706   -4.33960182117370
C         1.86205709521382   -1.25642089752701   -1.99167617791956
C         2.94817527265167   -0.70351031916251   -1.12886436237329
N         4.17103875846378   -1.01668004751763   -1.43879346025010
O         5.11093023432308   -0.66323724086651   -0.48014690678965
H         3.20304719279374   -1.16923093439043    1.90188947514349
H         1.93309287872123   -1.94997622747087    1.08321829514102
H         1.56436471774826   -0.48868935642069    2.02823045926443
H         3.25016178510236    0.68544704303303    0.51551195188110
H        -0.81148194853759    2.20224816604281   -0.10808756456455
H         2.89841243288445    3.44928119403851   -0.98395725525985
H         3.94617500881637    2.89262190848035   -2.13048170353443
H         3.70299697098551    1.85952364974125   -0.71957722031975
H         1.92668480546239    3.80129786354184   -3.12582921862175
H         0.24742097482190    3.00620312196979   -3.13489622712008
H         2.70563767144535    2.23058483812554   -4.73928863469958
H         1.02604173710448    1.47688299210554   -4.83250467160410
H         1.56541396842572   -0.53597497931069   -5.19838524773750
H         2.06736061084345   -2.29704105242368   -2.28044121533011
H         0.89473885684364   -1.30543859735115   -1.48257755556198
H         5.98645788887583   -0.86059238410599   -0.86512170630175
