32
 energy: -49.292022439731 gnorm: 0.129744393036 xtb: 6.4.1 (79825abcba525fcdf90b791dcacef51065a7a4e7)
C         2.22246300901406   -1.11807362294154    1.27973570863269
C         2.50325491279219   -0.00833649883233    0.26568875098238
O         1.31340836928929    0.78071558116304    0.11724854320476
C         0.90603512138515    1.66579582202716   -0.82643058666954
N        -0.22937220783725    2.25845969180714   -0.70597596314578
C         1.76449016299699    2.00681078501338   -2.09712985978824
C         3.18772379868678    2.46296180485863   -1.67255684712022
C         1.25246949812518    3.01406598461788   -3.15461185886186
C         1.66869796565768    1.99457473702760   -4.23043227232889
N         1.83193620469213    0.98789683027599   -3.19306563225742
C         2.00697406479618   -0.40319481215865   -3.29660298820529
N         2.12006381791708   -1.10145042413465   -4.38241175213184
C         1.78979521646761   -1.12282621146438   -1.97890851805101
C         2.88284618344328   -0.69102925460336   -1.05771471138311
N         4.05936827432437   -1.17178671059023   -1.33010136796539
O         5.00540104643118   -0.80205383932878   -0.38371845196406
H         3.18224210154588   -1.47843569801180    1.66668975183184
H         1.70580544946535   -2.04054587161192    0.99972562669689
H         1.64372882214147   -0.63447698958755    2.07433682079112
H         3.34087759821115    0.61605179187787    0.59674363714098
H        -0.64789374387153    1.88602657586352    0.15764889009864
H         3.82611168177894    2.57652087426173   -2.55837503739088
H         3.78294771082082    1.92088987303183   -0.92801312021037
H         3.12716585003151    3.46729219740982   -1.24487873644384
H         1.77986128029106    3.96862785115887   -3.09725262131315
H         0.16502798200039    3.06552923293419   -3.01277705170407
H         2.59479101082239    2.13373569033126   -4.80496501509746
H         0.82951704394781    1.79616319307434   -4.89797696073617
H         2.34920678391195   -0.55492638145309   -5.20940195246817
H         1.85456051868773   -2.18186820318842   -2.26641610551607
H         0.80910621367511   -0.96007266977438   -1.52168966033862
H         5.86200620891510   -1.01913303064317   -0.79941971987159
