32
 energy: -49.293108648665 gnorm: 0.132959320515 xtb: 6.4.1 (79825abcba525fcdf90b791dcacef51065a7a4e7)
C         2.15237852628244   -0.99423277492456    1.45412152709310
C         2.45057304973287   -0.01169856890078    0.32082617038551
O         1.30725373006870    0.83296121529149    0.12146906071924
C         1.02666598645294    1.67191170374745   -0.90677356105932
N        -0.07014712173673    2.34361922687882   -0.87994823735505
C         1.92516938680573    1.92077135029107   -2.17116013971916
C         3.35798045293246    2.37944257271289   -1.78308393050578
C         1.26928844783590    2.84075794390618   -3.22872396473295
C         1.55077179263206    1.76429542446734   -4.29267587735744
N         2.05399257146473    0.88675321008077   -3.24727394448136
C         1.98134663967341   -0.51722598800205   -3.25496861665096
N         1.78826111670995   -1.09298757550055   -4.39976006549459
C         1.79134751615033   -1.19012340210764   -1.90869073900389
C         2.86014040503349   -0.74915156625004   -0.96368669473402
N         4.12230037778840   -0.95017895956467   -1.20047063203979
O         4.97860424105255   -0.50569328973194   -0.20222356598423
H         2.99047015404591   -1.70015282959136    1.44708852623680
H         1.22929098047347   -1.53030078846168    1.21571808564478
H         2.11605717359814   -0.39702421624934    2.37184293704486
H         3.30659414654251    0.59392626091796    0.63944237359287
H        -0.60470149310559    2.05477304595077   -0.04896442595012
H         3.92262141374312    1.71822370799674   -1.11295050104093
H         3.22815836388608    3.34519453496722   -1.28014433803028
H         3.95902304710055    2.31543825297408   -2.69407603850781
H         1.78802565494452    3.78219384856314   -3.42167648652311
H         0.21228764185351    2.97530324798525   -2.96425944183320
H         2.27486865192634    2.04531466345059   -5.06973050768900
H         0.58196623984912    1.54037348744021   -4.74042853141971
H         1.84937801147923   -0.47378247055146   -5.20471819273204
H         1.95173856051823   -2.24483985082405   -2.17378133365155
H         0.79972273172187   -0.93957092136328   -1.51985599259679
H         5.79451336415186   -0.60787864974940   -0.72905729636744
