32
 energy: -49.285323836127 gnorm: 0.120695036209 xtb: 6.4.1 (79825abcba525fcdf90b791dcacef51065a7a4e7)
C         1.87905251550333   -1.22437900277526    1.16254562099916
C         2.38166919561958   -0.07701119983192    0.28529115162686
O         1.24440654734245    0.75572552417176    0.01407961307676
C         1.04977187389934    1.75577899363174   -0.88138715089837
N        -0.03478090269516    2.44756932398216   -0.89038802371307
C         2.03234903269348    2.01200163644957   -2.08005518365374
C         3.49243239483218    2.34646017774444   -1.66747302854713
C         1.44353230856200    2.96331668135305   -3.14930302962563
C         1.40218791292770    1.79646106548285   -4.15266573320383
N         1.75545797847784    0.90925078030171   -3.05528938172215
C         1.79514470158102   -0.48793455826073   -3.20626054006334
N         1.66026091212014   -1.08710616130327   -4.34736991934880
C         2.04572951109092   -1.27356384100133   -1.93293867211149
C         3.02381258498458   -0.67594428722499   -0.97585382812062
N         4.27930773508591   -0.85852894751093   -1.25855721210112
O         5.22818312798394   -0.30023309024252   -0.41282543425464
H         2.70359538486664   -1.84826226563842    1.52540770392415
H         1.08575677337852   -1.77572730467727    0.64971753264942
H         1.33310573198399   -0.98180185577731    2.08085293478152
H         3.16368564376872    0.48730472125071    0.80593272789340
H        -0.71759081745736    2.17791821835973   -0.16874165055867
H         3.44667846891706    3.43031150025786   -1.49930194299396
H         4.29452024681027    1.96490209917454   -2.31054950906335
H         3.65140830164745    1.96609704290984   -0.65489912138850
H         2.07075287532220    3.77621317694924   -3.52134359281928
H         0.44663340870889    3.31286533963081   -2.85046703851263
H         2.01882377576352    1.93522264768387   -5.05133553020185
H         0.47611038009084    1.37897712498191   -4.54927037414571
H         1.40622987935727   -0.42937207311543   -5.08082879748412
H         2.33411351869829   -2.27050472218271   -2.29538678095226
H         1.08151912003530   -1.45784410061141   -1.44958804926250
H         6.13718694317837   -0.54766112506737   -0.67010884426013
