32
 energy: -49.294020987610 gnorm: 0.115811425627 xtb: 6.4.1 (79825abcba525fcdf90b791dcacef51065a7a4e7)
C         1.90645541355420   -1.25587564330644    1.08056852847374
C         2.38170047611505   -0.10584896559241    0.19161824855042
O         1.17868227241271    0.63921387875261   -0.04921584393709
C         1.06243973095986    1.72288364585993   -0.85667967498054
N         0.01808394388169    2.46717779422736   -0.75540371766183
C         1.98345147334452    1.99293695453196   -2.10035227503373
C         3.45427689586579    2.40582829611388   -1.81729166744934
C         1.25622049282531    2.92310095138528   -3.10081538840125
C         1.49958709569920    1.82776243654599   -4.15485729407921
N         1.98881657258091    0.91127156804597   -3.13658635491387
C         1.84256926775412   -0.48500681664840   -3.21083332558413
N         1.58287750740653   -1.10125451308166   -4.32084676864610
C         2.06137765438082   -1.34621405247592   -1.98128068356355
C         3.04654139079643   -0.71883231417062   -1.05087667518699
N         4.33294621913554   -0.84309499389432   -1.18961331040888
O         5.01795213316866   -0.19854531958521   -0.16851407924241
H         2.77759535139175   -1.90460397373602    1.22560965598481
H         1.02011296319489   -1.78920207039350    0.72524372144142
H         1.63843058251724   -0.96101985415041    2.10106480275051
H         3.08907912673941    0.51408337573879    0.75408529676018
H        -0.54801334557348    2.24593838007686    0.07544017174955
H         3.51526031923286    3.46039320301375   -1.51848989053865
H         3.90999805130247    2.30716228392543   -2.80979462011064
H         4.04407896499513    2.00146006481619   -0.99032418737044
H         1.76028714656979    3.87845990324834   -3.26152200506239
H         0.21256480964034    3.02226700778656   -2.77486517868404
H         2.26836285395820    2.07737665263629   -4.89902028219113
H         0.54633397206954    1.53673016478505   -4.59736873540429
H         1.50469034019350   -0.46278278463585   -5.10910335245841
H         2.50438515185375   -2.30720176238007   -2.27905924321416
H         1.09089416366843   -1.47247261808258   -1.49188381787985
H         5.93645799691962   -0.52507492243497   -0.22706935490888
