32
 energy: -49.286329362761 gnorm: 0.130490877845 xtb: 6.4.1 (79825abcba525fcdf90b791dcacef51065a7a4e7)
C         2.48375566663243   -0.81067258529723    1.50719288387242
C         2.49824749861530    0.09213878884299    0.27294273694152
O         1.27533512594557    0.83088639946261    0.13470454768735
C         0.96262910606886    1.51797619558872   -0.99222618490064
N        -0.22494325941837    2.00618900506208   -1.07115481572520
C         1.95270034650876    1.93444534533179   -2.13862285342303
C         3.27683755293160    2.53797175308075   -1.59424567057590
C         1.32782547728999    2.82635911758181   -3.23817622403770
C         1.76601130774716    1.79641209964936   -4.29515324380636
N         2.23827698090264    0.93792101130899   -3.21991611177510
C         1.84916582863508   -0.41300269808024   -3.21033023910987
N         1.84196944523094   -1.20522744168160   -4.23583453551061
C         1.54328142056681   -1.10316120369777   -1.89447663733295
C         2.68573688624161   -0.74476861288349   -1.00220015487762
N         3.87811729626498   -1.16771155766374   -1.30031872342615
O         4.87817063945277   -0.59839055130035   -0.52373136278616
H         3.43536405178332   -1.35300083056239    1.54023404910305
H         1.59282404766928   -1.44379505060539    1.46605252481218
H         2.30836711165703   -0.24451041092863    2.42854468232709
H         3.24963558435802    0.86905299680171    0.45429901822261
H        -0.75483681447741    1.71904121910590   -0.23660490181133
H         4.10598996238544    1.84236958894531   -1.41052707084383
H         3.10239776214654    2.98985246387386   -0.61045024511404
H         3.60653552486770    3.41577958533935   -2.15639157944446
H         1.88096687892126    3.76242849287707   -3.34029992157743
H         0.25468869760025    3.05595925945636   -3.20725942271744
H         2.68684269257200    2.25140867004971   -4.68521690926156
H         1.03445363619716    1.44526179920671   -5.02366166029431
H         2.29178901268637   -0.86565912949976   -5.08286673158598
H         1.46121934913494   -2.19540089925403   -1.98776841263486
H         0.59883809975682   -0.77276370088655   -1.45158497053652
H         5.69651624109400   -1.02085143867343   -0.84860148875200
