32
 energy: -49.285069373998 gnorm: 0.129235233987 xtb: 6.4.1 (79825abcba525fcdf90b791dcacef51065a7a4e7)
C         2.32735041648916   -0.74734063090776    1.48833921364729
C         2.44805863409537   -0.00821808770962    0.15500535041647
O         1.20286196497538    0.64379072746944   -0.13609984097048
C         0.89320847977573    1.64510084020321   -0.99711267108663
N        -0.12118464907568    2.43622115105422   -0.99041712274069
C         1.92090228489088    1.98831593730947   -2.13463708979785
C         3.31238168850112    2.43034930158139   -1.60329767681692
C         1.38343135433985    2.93712071410555   -3.23276772584315
C         1.52472070624183    1.78960551414250   -4.24925397130176
N         1.98027852143757    0.91606696115666   -3.17893898885855
C         1.86545275127100   -0.48481642011145   -3.20783531876327
N         1.67500488588931   -1.13256116778720   -4.31394888775745
C         1.93062726467330   -1.36068445268300   -1.97091892772822
C         2.94597184906165   -0.94226154420341   -0.95908659937918
N         4.20488342187596   -1.18650354620809   -1.17125144684838
O         5.06333261094103   -0.56490470213873   -0.27459048300234
H         3.02651134163101   -1.57209036136869    1.66647410356579
H         1.31057633507388   -1.14892322478562    1.45373253418514
H         2.39467724855306   -0.10974716897861    2.37666998493455
H         3.11208424731403    0.83876276676839    0.36179812759676
H        -0.84653275330498    2.30132516215547   -0.27251198921392
H         4.03221315279769    1.60212752426810   -1.57167535196288
H         3.08831751284076    2.58661732527888   -0.54129277205291
H         3.60018649766615    3.34881583579272   -2.12179839172708
H         1.96679767429735    3.85440124518612   -3.33717412981367
H         0.32935393619145    3.21172471426969   -3.09562521739781
H         2.27259267362222    1.99701406165253   -5.02692433058690
H         0.56256234601185    1.54787646223416   -4.70205196926324
H         1.60039266831211   -0.40960518917003   -5.02590078040451
H         2.16064267409589   -2.40833958480548   -2.21161939845228
H         0.90780621624342   -1.27811578323150   -1.59103968735251
H         5.94490057605250   -0.74959385987688   -0.65199101411584
