32
 energy: -49.287455284954 gnorm: 0.118206541666 xtb: 6.4.1 (79825abcba525fcdf90b791dcacef51065a7a4e7)
C         2.27021500239001   -0.63933746884572    1.47341948262300
C         2.49449033092163    0.09093486389053    0.14863470077044
O         1.20821861103400    0.69485585365635   -0.05423720841313
C         0.93911034289674    1.67809884208268   -0.94903568508626
N        -0.16505059536497    2.33044724593638   -0.84814069813423
C         1.94630843733081    1.97284746894491   -2.11804732853712
C         3.30748470094466    2.57796404280785   -1.67650105661721
C         1.28902948335685    2.96338240715915   -3.10891630629290
C         1.49953441144458    1.91409657992632   -4.21557119029639
N         1.98474108263474    0.96504391713953   -3.22559633036363
C         1.95560799979647   -0.43397767607869   -3.36118414124368
N         1.89449119977973   -1.18321408134475   -4.41676001139978
C         1.94583330922863   -1.26420330626222   -2.09154459777968
C         2.87446778250015   -0.86625485263043   -0.99196191270332
N         4.08246561033855   -1.33436378761781   -1.09751626160039
O         5.08410651259848   -0.93746128261890   -0.22201359222679
H         3.13741947339308   -1.23518926684312    1.77950313797553
H         1.38669283802374   -1.27080842361427    1.34330893343270
H         2.16686820726277    0.06065347821963    2.30979380329955
H         3.16483918654286    0.95000117519862    0.26571301372459
H        -0.83305249391278    1.90242982217695   -0.19217641709483
H         4.06723158977089    1.83344412894853   -1.40523848665493
H         3.13022128315275    3.27511036158257   -0.84882747796057
H         3.68164506749211    3.14051091167287   -2.53603605725612
H         1.71074723973284    3.96885685202570   -3.17052645845494
H         0.22607410256403    3.06093761570712   -2.85219958439418
H         2.26139071574736    2.13562447012505   -4.97557273084691
H         0.52925550619544    1.62450035711391   -4.62041751882044
H         1.60591767065840   -0.61302053531869   -5.20841174196562
H         2.31307211791163   -2.20068714738301   -2.53489409104922
H         0.98857427135284   -1.39810806408979   -1.57869630776083
H         5.70989419058352   -1.68321705991071   -0.29909424080273
