32
 energy: -49.272808618326 gnorm: 0.126818307504 xtb: 6.4.1 (79825abcba525fcdf90b791dcacef51065a7a4e7)
C         0.91004371972467   -0.55389843045121    0.92786951380221
C         1.92219670646761    0.40000433222269    0.29204904794851
O         1.26157661104859    1.14765000885281   -0.73992941742952
C         2.01310493771423    2.12815312141564   -1.29999120011784
N         2.67142816281213    3.05944961456049   -0.70483828015179
C         1.95829675055749    1.88175724510110   -2.85053889761809
C         3.22419228447130    2.40085302004407   -3.58673051283535
C         0.68505396919751    2.35905197412648   -3.58948340280318
C         0.45516290478041    0.88909530994922   -3.98492695944963
N         1.49728744372401    0.47195078364983   -3.05964669361231
C         2.40128037410955   -0.60332927038337   -3.00429499950278
N         2.46975927132297   -1.68201145436443   -3.71919796519316
C         3.43249063804135   -0.44571545282880   -1.90287865246877
C         3.03218642337122   -0.34286977814483   -0.46796182065726
N         3.80331826477974   -1.14045915485810    0.20933672208088
O         3.69350609723387   -0.98132944065115    1.58408762479917
H         0.07281401930357   -0.66935993384714    0.23038458003250
H         0.63157285212238   -0.26911084713307    1.94651849202605
H         1.44258954961134   -1.50974102687354    0.98218122161757
H         2.42018005070062    0.99382867818632    1.06693941286137
H         2.77595722646343    2.92505624818944    0.31040882663626
H         4.17094721777646    1.89577220795656   -3.35509050901249
H         3.32948113877217    3.44987471451102   -3.28515695889137
H         3.01345511532731    2.38504438529021   -4.65938857164896
H         0.73095613983352    2.99227150464732   -4.47804772308310
H        -0.08693230869091    2.75009158304550   -2.91389488727417
H         0.59944712079395    0.48805213536713   -4.99757122461726
H        -0.52305551041232    0.62512488805052   -3.58167018862413
H         1.80833776267144   -1.69184566242146   -4.49220035576317
H         4.03313653170557    0.43726430478333   -2.16363973880327
H         4.06337578132821   -1.33941921920148   -1.87908297629153
H         4.31638505171676   -1.66492494952967    1.89781093008377
