32
 energy: -49.291340792957 gnorm: 0.121277865396 xtb: 6.4.1 (79825abcba525fcdf90b791dcacef51065a7a4e7)
C         2.05792788246863   -0.97931791174550    1.27561745330327
C         2.51251383195399    0.00218947046769    0.19457781795364
O         1.27786303508612    0.70836420475336    0.00137547943822
C         0.95867556477118    1.72734860115695   -0.83506966657572
N        -0.17945503149294    2.32555033560247   -0.79356023823923
C         1.84424981427994    2.00831948596045   -2.10184769129274
C         3.25553040147741    2.52184214951253   -1.70371258338982
C         1.31831649729684    3.01169926328677   -3.15618139799973
C         1.37648879918941    1.87004040974295   -4.18731143167647
N         1.75564625620833    0.93314547711649   -3.14105898203559
C         1.95109156035386   -0.45263510464100   -3.27487793260104
N         1.84043676194618   -0.99210517224648   -4.44793310251083
C         2.09082612834756   -1.31158087240042   -2.03228342385565
C         3.04885676310310   -0.72813102277428   -1.04660060675438
N         4.26710570905485   -1.17218666515663   -1.13721261788111
O         5.15679806844184   -0.79239938831159   -0.14145654790501
H         2.86186312884218   -1.65109141702153    1.59683177502462
H         1.20677550550368   -1.51630539806102    0.84727202314207
H         1.64233045922526   -0.49203509126628    2.16445046602724
H         3.28931471200486    0.70648261997153    0.51335892456957
H        -0.79786751441882    1.97586610674124   -0.04857599122228
H         3.22601018566041    2.86882646087521   -0.66263666615615
H         3.59366943478182    3.37455203357355   -2.30456756191122
H         4.00881825394553    1.75466081171642   -1.90181754477200
H         1.91192791805284    3.88633432884175   -3.43051607187480
H         0.32921460884339    3.38041887129095   -2.85448961284149
H         2.17206108888129    2.14189047369515   -4.89460503720799
H         0.49442713450893    1.60248480054390   -4.77005398702316
H         1.78150537275675   -0.41498481265680   -5.28373630749014
H         2.48981075840068   -2.25184017085754   -2.43866847566976
H         1.12328002285856   -1.49552683884792   -1.55551604956369
H         6.06281645976107   -1.08900094899708   -0.35326191016269
