32
 energy: -49.288532469592 gnorm: 0.125637543336 xtb: 6.4.1 (79825abcba525fcdf90b791dcacef51065a7a4e7)
C         0.77430233987800   -0.93873417892359    0.47615252741948
C         1.84203586819463    0.09025918826152    0.10229488342219
O         1.16876432699315    0.88201127971217   -0.88775892989656
C         1.99397179815209    1.85552996123614   -1.34726339661846
N         2.68216134941382    2.55890891970872   -0.51867255709678
C         2.07120303651773    1.94078725897755   -2.91400507804765
C         3.46092268177961    2.52739354069104   -3.28616414971365
C         0.83959739716361    2.47031171650963   -3.68714658012202
C         0.49422314473312    1.00186153224109   -3.99434160283731
N         1.79349357106404    0.58590461454714   -3.48931399793752
C         2.11807480840577   -0.59791180107922   -2.80395284281071
N         1.50074933154431   -1.70254221855760   -3.08329447150210
C         3.35422073041103   -0.63133226111844   -1.92521455284227
C         3.20952366252055   -0.30824434575058   -0.47453060280845
N         4.30480464152607   -0.42164256593409    0.21614067878720
O         4.04349794095300   -0.38079597036115    1.57899480758510
H        -0.07818743917156   -0.43505726932559    0.94555736507295
H         1.21178651169955   -1.60326308479233    1.22668877540416
H         0.40904122184332   -1.54984981520215   -0.35650098491486
H         2.08246525492871    0.69204908257912    0.98610055168288
H         2.32802252347675    2.37284841459210    0.42984300328283
H         4.26477433730133    2.06683286287470   -2.69725414051063
H         3.32885695236381    3.59537219686630   -3.07531088722117
H         3.54125258455635    2.33508285717337   -4.35939249593832
H         1.16504638458187    3.15002927006685   -4.47751835021238
H         0.07868205297395    2.98993791667095   -3.09024535524332
H         0.42625711764404    0.84675128592601   -5.07989372166974
H        -0.31670352105396    0.59812321640632   -3.38721642183119
H         0.76952111885967   -1.54935418284964   -3.77390763827926
H         4.09944096143879    0.03305556721304   -2.38528050761640
H         3.71780514694212   -1.66258091017080   -1.88494912706792
H         4.93168726184786   -0.40156454645261    1.98444729367353
