32
 energy: -49.281199575658 gnorm: 0.120293231671 xtb: 6.4.1 (79825abcba525fcdf90b791dcacef51065a7a4e7)
C         2.30509595682036   -0.76885958749190    1.39927861160776
C         2.41319757673239    0.17428415970562    0.20034336034781
O         1.10888470189124    0.74580431502034    0.02005152902358
C         0.93616181078642    1.65496719885842   -0.97163390732432
N        -0.20105381100822    2.24054497512119   -1.10856059252561
C         2.00391605594997    1.88684047200597   -2.10037153865313
C         3.47305658134055    2.23099065104484   -1.73007873135251
C         1.51293045257194    2.95496916879152   -3.10686577492670
C         1.66363647488385    1.88590876398154   -4.20431538688462
N         1.80247572835949    0.86519639819780   -3.17716077022236
C         1.63869686833798   -0.53031786536860   -3.22417806404893
N         1.41718388201666   -1.24860912001305   -4.27979188408241
C         1.96901428765397   -1.31777658393067   -1.97032246536331
C         2.88796035308889   -0.71593485713052   -0.95882274213359
N         4.14727816878459   -0.85801809483132   -1.24771275128044
O         5.01256960914739   -0.36900352516961   -0.27845711094541
H         3.26911475461280   -1.28949350783053    1.41872713365838
H         1.49015919666445   -1.49275393904609    1.30899693902652
H         2.08001744792321   -0.25956979180164    2.34275805484752
H         3.10688515579949    0.99160699668469    0.42805099379413
H        -0.86453860731009    1.99877938923406   -0.35952660366938
H         4.07325138285363    1.32364478051444   -1.58311515823003
H         3.43845449289525    2.70485049186279   -0.74177796227272
H         3.86407982263789    2.98972102359383   -2.41322177414636
H         2.12916223948355    3.85520664765573   -3.05735409228753
H         0.45573027793660    3.08880577663737   -2.84283889946525
H         2.60647396769019    1.98038786384510   -4.76040273245747
H         0.86693943889960    1.63450336734050   -4.90522681663245
H         1.37955192625736   -0.63549616200401   -5.09083082291251
H         2.62249733837314   -2.13660106776481   -2.30335619469569
H         1.04550530670000   -1.80641857543612   -1.64528573242819
H         5.73018372392627   -1.03135765151123   -0.27394963226085
