32
 energy: -49.286495584979 gnorm: 0.134809437690 xtb: 6.4.1 (79825abcba525fcdf90b791dcacef51065a7a4e7)
C         2.14143638222418   -0.90238401632969    1.40413139602302
C         2.48265726166223    0.15727973585684    0.35564064857741
O         1.30177909280827    0.93418598560991    0.10600910355462
C         0.98584141125438    1.53635286402482   -1.06763000202910
N        -0.24603995605281    1.78008140955077   -1.34686877597321
C         2.03109174183582    1.92870568664099   -2.17281051317807
C         3.37060295365581    2.44488839900249   -1.57850831200801
C         1.37658859030704    2.86145957461911   -3.21999350164510
C         1.88147376716531    1.87892385530202   -4.29224003222346
N         2.18382502080634    0.90456951703741   -3.25522796107129
C         1.68861913390415   -0.40659314893822   -3.14514698176879
N         1.04600591800447   -0.99454320789093   -4.10467491940281
C         1.96091511131202   -1.25115572441894   -1.91473093235673
C         2.86975580395103   -0.61109488639695   -0.91766637536033
N         4.10173725363995   -0.95420938879007   -1.15008964882737
O         5.14367969775707   -0.50762208565588   -0.34869290748080
H         2.92169567855895   -1.65311251215591    1.57257223048035
H         1.31165357304514   -1.51840204787974    1.04597220334310
H         1.94212238170094   -0.29744517185698    2.29548587829737
H         3.38790341723546    0.61851017626687    0.76657337498451
H        -0.74560711766700    1.48920259415058   -0.49508432085331
H         3.29993067255245    3.05535933000692   -0.66887141467382
H         3.84282613304242    3.12773809785051   -2.29488839029814
H         4.05059063665568    1.60852077579303   -1.39585750182377
H         1.85159172346758    3.84477034832700   -3.22961020078650
H         0.29326013841084    2.94010695406941   -3.06027911665268
H         2.85185897199078    2.19985654254826   -4.69529926288895
H         1.13199647445476    1.69754820595857   -5.06333946224023
H         0.84614944274744   -0.38702395426782   -4.89593060953227
H         2.40182623070213   -2.18677310924409   -2.28707832159871
H         1.05041476852165   -1.62325410743621   -1.43533482683134
H         5.88475694031376   -0.82155410997376   -0.90182447251543
