32
 energy: -49.289348369982 gnorm: 0.128840391619 xtb: 6.4.1 (79825abcba525fcdf90b791dcacef51065a7a4e7)
C         2.42189293688903   -0.78407107180265    1.55049914465431
C         2.38814443528385    0.09044530801890    0.29641224842041
O         1.13590076899916    0.76053323562301    0.08846884936727
C         0.99393905410269    1.51785425095115   -1.02784744033019
N        -0.14457217093559    2.09887013109189   -1.17318269767276
C         2.03515182051987    1.86429849904800   -2.15202059561363
C         3.34444165674751    2.34758472598864   -1.46928746735230
C         1.49745050488644    2.87095966238133   -3.19725118243517
C         1.68973797917738    1.77525798027545   -4.26142290311663
N         2.15553015884543    0.84586296081982   -3.24385755850542
C         1.87595835570229   -0.53193023217361   -3.24829926481248
N         1.61424336499196   -1.16556144654994   -4.34800268662813
C         1.73178662960411   -1.20863344352309   -1.89824668404972
C         2.76534112320642   -0.79058157117632   -0.90486620827774
N         3.98350937573900   -1.00662090387493   -1.30351336683373
O         4.88793632551595   -0.38580967085081   -0.45267476349098
H         3.49089710325462   -0.99909508704559    1.65896540278744
H         1.66606185506549   -1.56595656366215    1.43357957245975
H         2.15491091693300   -0.19105629126997    2.43211354868930
H         3.17273627725086    0.83107889869163    0.48862921495111
H        -0.71898083203794    1.77018224509267   -0.38468186961471
H         3.12550883898491    3.12451860918472   -0.72527753426454
H         3.89490923565522    2.87134085208967   -2.25994784097609
H         3.92011917044534    1.48673482218810   -1.11887598151353
H         2.04727317158315    3.80406877399361   -3.33733310972910
H         0.43522031721077    3.06972194396970   -3.00371769748122
H         2.40158717830912    2.09142541636328   -5.03628472300515
H         0.75179457628855    1.48600998697809   -4.73661280501292
H         1.65038760698342   -0.47058279548395   -5.09016580582197
H         1.88843847569646   -2.28389388083082   -2.06468068580571
H         0.74931500333328   -1.00534915634883   -1.46153886779639
H         5.68273388875098   -0.38919404199739   -1.02011524796159
