32
 energy: -49.288191961536 gnorm: 0.119636742313 xtb: 6.4.1 (79825abcba525fcdf90b791dcacef51065a7a4e7)
C         2.14077701751560   -0.74889443075640    1.56990140105814
C         2.56595063831653    0.07658770852330    0.35480534601410
O         1.56778732229955    1.09206775946689    0.17357971397682
C         1.04723886290987    1.54460060432343   -0.99436448016419
N        -0.22903678534869    1.70085720872164   -1.03453836880317
C         1.90434845587999    2.04470371076302   -2.21222037252636
C         3.31260277429955    2.45673517396539   -1.70135851001925
C         1.25555898192266    2.93469563750022   -3.29941077711923
C         1.64936290452103    1.90946688118124   -4.37821686196795
N         2.00735098770241    1.01109382363753   -3.29150298042173
C         1.84375920277709   -0.38374271439810   -3.22698191120543
N         1.71156823454187   -1.04236441453453   -4.33516686025358
C         1.81000921948869   -1.16781060284356   -1.92873187076663
C         2.82570988206088   -0.73834332795932   -0.92189671355797
N         4.02192455367356   -1.15746278194216   -1.20988243068195
O         5.00049091849852   -0.79510964973273   -0.29422469149616
H         2.94927676299060   -1.45690848476447    1.78394443484422
H         1.16298144917968   -1.18268171187721    1.34177829109066
H         1.93617760104298   -0.09545452285711    2.42508866142621
H         3.56923488848526    0.40210946384088    0.65233875777076
H        -0.74884423358207    1.26856686436276   -0.25823954826232
H         3.95857275737638    1.58437646215934   -1.53758525025643
H         3.27296935084402    3.12264883497395   -0.83103268424615
H         3.78530434690739    3.04182367389863   -2.49475629470807
H         1.61629702346887    3.96350532528075   -3.36296564049912
H         0.18869022472882    2.88233490357336   -3.04574950667287
H         2.52580603112630    2.18344823897913   -4.98144454116615
H         0.83416914699771    1.58970077818595   -5.02815258722374
H         1.84567141539769   -0.34733002657885   -5.06595504031939
H         2.04750952833261   -2.19823228599722   -2.22914798704584
H         0.84673154745217   -1.03803450291830   -1.42619530356016
H         5.85062929396024   -1.19946698140909   -0.55396150682982
