32
 energy: -49.284489328419 gnorm: 0.136349643371 xtb: 6.4.1 (79825abcba525fcdf90b791dcacef51065a7a4e7)
C         2.21932158657577   -1.01759702352246    1.32805049473505
C         2.35210151702169    0.02493304749701    0.21712639413765
O         1.10426604526479    0.69079874202836   -0.02762248786175
C         1.05960358407013    1.68311134339995   -0.95129521665086
N        -0.00231904123323    2.35750681228896   -1.22040618859107
C         2.06144673562282    1.90829642230774   -2.14020857142803
C         3.47989046077580    2.22297420678144   -1.58982208282411
C         1.55386821311511    2.96026159973387   -3.15545717314673
C         1.22180302251731    1.78966795528317   -4.09855914742835
N         1.94242881182384    0.87924682683834   -3.22219818600358
C         1.81869020099050   -0.52013824240395   -3.27609062303955
N         1.49458112595081   -1.15412327689376   -4.35884043311979
C         2.03238792403600   -1.30953160490616   -1.99837934723323
C         2.95556848974441   -0.68005348883654   -1.00777247697474
N         4.24459862102284   -0.82140766066238   -1.09691706437692
O         5.00169883748590   -0.22481627894672   -0.09781796787388
H         3.22703197357938   -1.41316827033305    1.49779538918647
H         1.49387897399100   -1.79553422102555    1.07340865508852
H         1.73672427802238   -0.65449461633093    2.24207804795701
H         3.10569285872256    0.76106729255132    0.51924608697785
H        -0.76716397616546    2.22885194484449   -0.54352012668475
H         3.98265461403985    1.64232765877908   -0.80548388682718
H         3.28970067269934    3.23722308482642   -1.21886935606007
H         4.24387233618258    2.30805567717785   -2.36722044008909
H         2.40369021084655    3.51884019041112   -3.55346856752773
H         0.75383469891663    3.51574392493037   -2.64882081758551
H         1.61445038423821    1.87122809358760   -5.12143644596267
H         0.18496701750485    1.52953382664054   -4.31421861893350
H         1.21249656153471   -0.69345239736409   -5.22099961404374
H         2.28378002787309   -2.32477618538165   -2.33676601498694
H         1.04399143293293   -1.39147910664387   -1.53616110379707
H         5.89512694472697   -0.51818671011601   -0.36130104335410
