32
 energy: -49.285012595316 gnorm: 0.129095456355 xtb: 6.4.1 (79825abcba525fcdf90b791dcacef51065a7a4e7)
C         2.25604754525404   -0.91293782627887    1.38403239690053
C         2.44772782300141    0.02171980591690    0.18890663843238
O         1.20514606438195    0.72650212053648    0.04874626732073
C         0.95522669638907    1.66224087191112   -0.90087661111141
N         0.09892398863274    2.56963754758988   -0.58736974909748
C         1.76819856711121    1.98578916938040   -2.20560117557355
C         3.25030476228168    2.40023128763876   -1.99222605321996
C         0.96296529343065    2.95070545928258   -3.10866946219331
C         1.29113765647079    1.98680031617374   -4.26330701658319
N         1.52039156236445    0.95498039168957   -3.26382365857176
C         2.09757904641876   -0.31856944981001   -3.41017812354604
N         2.37967120929579   -0.81405165296862   -4.57390157427535
C         2.12406311707760   -1.18996239452996   -2.16867596081786
C         2.96883765575640   -0.79945246873371   -1.00091529600580
N         4.13976966399307   -1.36115719845140   -0.94676318677215
O         4.89236772107217   -1.15892818293261    0.20215830911389
H         3.24136304450439   -1.39149788296701    1.41409572459069
H         1.44310083660163   -1.63697816085560    1.27830174654660
H         2.22584927727880   -0.31954501170111    2.30444693316300
H         3.24593994765773    0.70447626314780    0.50158994799155
H        -0.41729959056060    2.38000159781448    0.28284057597878
H         3.29641268301434    3.48414904688160   -2.15987143861926
H         3.83928402203032    1.78838557504079   -2.68593140649776
H         3.65951537122552    2.35368323684666   -0.97948950379452
H         1.32781940185614    3.97309551306871   -3.22791957771486
H        -0.10874160779077    2.94790714495685   -2.87048651371941
H         2.23996395184925    2.18294426977187   -4.78134001703440
H         0.47027371064795    1.64099198005618   -4.89243868472040
H         2.25534774072184   -0.18811346016993   -5.36627325075352
H         2.46309851336789   -2.14385336337575   -2.59712911300728
H         1.07066135082636   -1.30157361149499   -1.89449287122000
H         5.77651791817892   -1.54345922375191    0.04685979199157
