32
 energy: -49.292350942648 gnorm: 0.128153052394 xtb: 6.4.1 (79825abcba525fcdf90b791dcacef51065a7a4e7)
C         2.08308027215594   -1.00799625852469    1.27730302997729
C         2.39649130867189    0.01764692183187    0.18712808310097
O         1.12225131936487    0.64788521604205   -0.01157936253740
C         0.95169828202530    1.60369102394498   -0.95878433356583
N        -0.07031102862512    2.38488989646254   -0.97039906800562
C         2.00732361793499    1.87286513693717   -2.09064714212884
C         3.40394532917932    2.24308812238460   -1.51940924490687
C         1.48520659379224    2.90845313806131   -3.11531670723794
C         1.35043659699710    1.79870908886707   -4.17376051584993
N         2.00562665297874    0.90356265149634   -3.23268903176142
C         1.93881380493989   -0.49980228757445   -3.28365090363953
N         1.51250004460411   -1.15782214275806   -4.31544416375761
C         2.07297247100011   -1.34339800652368   -2.02997533427829
C         2.98058407428024   -0.65192929855736   -1.06668967981731
N         4.26626102644954   -0.79649074743581   -1.19184242979636
O         5.11307237581274   -0.16692443313064   -0.28969066087593
H         2.92312042849555   -1.64698613355420    1.57191232862562
H         1.25140518781944   -1.62461268986174    0.92460419557914
H         1.62531709478983   -0.49616437557119    2.13092524684737
H         3.07539173381505    0.75937860448001    0.62301587646236
H        -0.67242959818501    2.23882487770980   -0.14830854484164
H         3.19898595315414    3.00627298870136   -0.75740587180324
H         3.82976680745572    2.76139256045640   -2.38688572719442
H         4.02586582637557    1.38378958175910   -1.25468999261551
H         2.25241042016736    3.65291912173717   -3.33845170286395
H         0.60508622540514    3.50843715196398   -2.84941832643485
H         1.89418288161240    1.99190496044874   -5.10870292356405
H         0.33681257784313    1.45353514985581   -4.38022837163581
H         1.29046179938797   -0.55711192673918   -5.10598453452965
H         2.67532370715116   -2.23396110896343   -2.25909417980870
H         1.07528847949299   -1.62975791736075   -1.68369023255090
H         5.93112401261795   -0.69920966878342   -0.32385600172877
