32
 energy: -49.291270277667 gnorm: 0.122671070697 xtb: 6.4.1 (79825abcba525fcdf90b791dcacef51065a7a4e7)
C         2.17804730479560   -0.96740649856381    1.26101854146370
C         2.44701182712238    0.09429125300690    0.19372861694633
O         1.20463872963032    0.79072430395278    0.01522768440458
C         0.93525228813771    1.57769467725500   -1.05620076163874
N        -0.23336091441513    2.11163962167593   -1.12066464976680
C         2.00454741351551    2.03682181508556   -2.11153160323423
C         3.42832530459959    2.41534342348540   -1.61806641063400
C         1.30488588913406    2.95936306580006   -3.13836547603139
C         1.51923963533138    1.85961554205689   -4.19411448030047
N         1.99387034670661    0.96071662797296   -3.15349777630213
C         1.80457399886365   -0.42767518871673   -3.26764362251072
N         1.31896219575740   -1.04478649375664   -4.29851009536806
C         2.17459975896639   -1.24627615992306   -2.04521649392547
C         3.06150564811572   -0.61327129390801   -1.02418279834802
N         4.30897123240290   -0.96585247920328   -1.11927518479088
O         5.09332834784670   -0.67849307469426   -0.01043366858979
H         2.71903370332416   -1.88327158624235    0.99777906876596
H         1.11984699299423   -1.24096260825846    1.22009313453347
H         2.32066738953860   -0.66592226204068    2.30454940065118
H         3.15524723775607    0.83968734800803    0.57301360429988
H        -0.94141681535314    1.74628120019452   -0.46883288288595
H         3.42387291641914    2.96527733705540   -0.66798142221992
H         3.83055779902161    3.06994029996466   -2.40049264457445
H         4.13464092770443    1.59260690182940   -1.47850201323729
H         1.89916256984772    3.86817671894495   -3.25461309566143
H         0.26802942877067    3.12981751172695   -2.82029536426831
H         2.17877201813065    2.04914322781079   -5.05213444782378
H         0.52066189319299    1.65287023054131   -4.58051652932959
H         1.04857434590468   -0.44150571589261   -5.07184736528510
H         2.73584521314771   -2.15259657777723   -2.31356687184740
H         1.23644295155381   -1.60305089656358   -1.60948457114515
H         5.99506164776304   -0.87256629242711   -0.33123885133213
