32
 energy: -49.287887494233 gnorm: 0.131442903610 xtb: 6.4.1 (79825abcba525fcdf90b791dcacef51065a7a4e7)
C         2.22759859603416   -0.89547886729156    1.40466162591261
C         2.41716145087123    0.06778068922282    0.23212217034496
O         1.14353356930762    0.69247385449625    0.01302633482025
C         1.01517281753411    1.61734757256518   -0.97083466761177
N        -0.05767528679954    2.32334302108197   -1.04484138070845
C         2.07893318644891    1.89292318598640   -2.09350333776642
C         3.50533509297122    2.30714791111244   -1.63773426522495
C         1.48758074239398    2.88950528096318   -3.11923372938134
C         1.59660754280036    1.80553585954672   -4.20694764223007
N         1.77718111645380    0.84974520366149   -3.12526650418876
C         1.81567130506015   -0.54810401312976   -3.27028465843661
N         1.60823759528735   -1.18209666963036   -4.38130015161132
C         1.87176871157110   -1.32654379848478   -1.96942368098699
C         2.84611042929942   -0.68717340055806   -1.03579058498197
N         4.09751176933725   -0.96432109077167   -1.25191623819157
O         4.94797183162173   -0.32383867241940   -0.36094992021589
H         3.23355458283266   -1.02501270801237    1.81944313775404
H         1.68698511036443   -1.81289346245001    1.15489522611423
H         1.64576487315040   -0.44144276732844    2.21429773565487
H         3.02319028544708    0.88433078517057    0.64083336228755
H        -0.72879014740337    2.20449659302780   -0.27335258649197
H         4.06413613900118    1.52041288976820   -1.11438160092203
H         3.22426744346085    3.19522609109927   -1.05911782290355
H         4.11344494628446    2.55815202135834   -2.51092079203396
H         2.06792812178229    3.80947094190413   -3.21660231180585
H         0.49541785800938    3.15304404149286   -2.73006182722725
H         2.45132352089134    1.96629385184803   -4.87830405547643
H         0.64353212241053    1.62797108501518   -4.70627285389881
H         1.52786695680023   -0.65658504096450   -5.24875960466102
H         2.09379211152243   -2.38755409678043   -2.15214707814792
H         0.91533018046059   -1.31326727492598   -1.43806900637571
H         5.87230422391911   -0.43337460823862   -0.65644075035248
