32
 energy: -49.290578486443 gnorm: 0.129227206338 xtb: 6.4.1 (79825abcba525fcdf90b791dcacef51065a7a4e7)
C         0.68856754642737   -1.16896568502453    0.01566965028525
C         1.67249429458765    0.00025798854240    0.07445709759793
O         1.18823077921277    1.05708662301789   -0.76754918905017
C         2.04785406510547    1.98090382578890   -1.26500263610710
N         2.90606289852721    2.70455179488146   -0.63673452062313
C         2.16438158614127    1.92803890934342   -2.83074196014405
C         3.44933817351914    2.49851736017400   -3.49208218730962
C         0.83623679659697    2.47357412850656   -3.40816654424107
C         0.42847301034568    1.02126941682775   -3.71563657508793
N         1.73621916471266    0.56256077516803   -3.27341145747053
C         2.16278395084664   -0.68235343517976   -2.77871428603718
N         1.53483583215330   -1.76102374820016   -3.12725750144121
C         3.34958691367350   -0.74341470113540   -1.83578007688717
C         3.05501353524232   -0.47801535703726   -0.39612847891362
N         4.16498944866837   -0.40814951761471    0.27662605684042
O         4.15061237527643   -0.03347701865313    1.61331406456026
H        -0.32370662456487   -1.03871864114379    0.41455167289497
H         1.19706942027746   -1.98206327813897    0.54159158677216
H         0.68276277143854   -1.39389069129907   -1.05650801132663
H         1.81104393656804    0.43680675377765    1.07009709824301
H         2.89515126345741    2.48427382137045    0.36878680690339
H         4.38248158350503    2.21302914163269   -2.98924178615281
H         3.36087112449200    3.58869958954971   -3.57053694167627
H         3.44659323882804    2.10874453166399   -4.51351499518205
H         0.88416504456473    3.08539432969113   -4.31149342717871
H         0.20753602492152    3.02216808997742   -2.69467188198929
H         0.33359147685899    0.80653683707285   -4.78894425972995
H        -0.38957180568650    0.64161059953902   -3.10255458046770
H         0.65549062489626   -1.58971685304153   -3.60945432087997
H         4.17384381115428   -0.09929268558885   -2.17361505192279
H         3.77744196999434   -1.73946520770224   -1.98448162786664
H         5.05628422202561    0.31596203940991    1.71987003015544
