32
 energy: -49.285172689584 gnorm: 0.121241082566 xtb: 6.4.1 (79825abcba525fcdf90b791dcacef51065a7a4e7)
C         1.81288713906501   -1.30208159072945    1.11879949861172
C         2.40263477234065   -0.15956997008758    0.29084011445201
O         1.40343670008228    0.86426074640300    0.17359521766722
C         1.10899738149239    1.68435775576795   -0.86592231944098
N         0.00809076380660    2.34977833083578   -0.87731046615246
C         2.03433365978373    1.92852536127612   -2.11173447318364
C         3.45058816746478    2.34328213523761   -1.62580239609503
C         1.42030114629916    2.91286459573440   -3.13595942391367
C         1.28006335527795    1.78306501151324   -4.17224334348643
N         1.86389797416993    0.89307602237747   -3.18066207018643
C         1.99356101774147   -0.50500824657557   -3.25166978284421
N         1.73918919167575   -1.15507767584257   -4.34347361166670
C         2.03450262832960   -1.35298412352301   -1.99444449667105
C         2.97512722500537   -0.72997800974697   -1.01623398776909
N         4.25570593729032   -0.80029167848980   -1.22765914537575
O         5.00364290732336    0.00369169364165   -0.37823460526446
H         2.68551043128600   -1.93527321047803    1.31467478509526
H         0.92672767358755   -1.77826368026688    0.68953529948392
H         1.45593381513283   -0.92956662695266    2.08523977951927
H         3.16398471728982    0.39220992750802    0.85382772703696
H        -0.53607020408909    2.18586971621877   -0.01897638333056
H         3.70411306757002    3.35754331366710   -1.96062773757087
H         4.20654487375584    1.72813632382579   -2.12839960020358
H         3.57522709561230    2.21986514849528   -0.54668759473921
H         1.96368308460274    3.80059897302147   -3.46654114597964
H         0.45373157456663    3.31567830869341   -2.80614279932032
H         1.89597585032999    1.96404662995454   -5.06387074567517
H         0.31307440997763    1.55645048968459   -4.62256090549253
H         1.41170229611258   -0.51096622326354   -5.05970024931605
H         2.37905715812557   -2.37798023890796   -2.19215699077580
H         1.00285322569889   -1.37898833048177   -1.63069731025092
H         5.96707564655499   -0.10777544675408   -0.49258387895394
