32
 energy: -49.285943318273 gnorm: 0.121498308985 xtb: 6.4.1 (79825abcba525fcdf90b791dcacef51065a7a4e7)
C         2.31459862949459   -1.01264722565472    1.39497774288156
C         2.46598189473093   -0.07650774960927    0.19523702229400
O         1.20013123111244    0.55103309687747   -0.05811465244855
C         1.00610440242395    1.41803637247843   -1.08305817510055
N        -0.12877535096732    2.02222277641305   -1.12683425505652
C         2.01054073842604    2.00992211954103   -2.13600254937052
C         3.36395914427902    2.54361935795812   -1.59069910266779
C         1.36484906441911    2.99552706732493   -3.13932778760894
C         1.60415059889044    1.94400341925644   -4.23797736565474
N         2.15167277932275    1.02302780043987   -3.25400578420201
C         1.79822070206708   -0.33686840988788   -3.20659111426296
N         1.31694469900571   -0.99275165587272   -4.21531379986463
C         1.87975403886163   -1.20440400438732   -1.96478235113589
C         2.98357366233024   -0.86461839648837   -1.01824392464877
N         4.26435377658464   -1.05902410392624   -1.12471055819731
O         4.94615548321450   -0.39476776366200   -0.11415082891469
H         2.75024662979882   -1.97674395993808    1.10949837634787
H         1.25882148494402   -1.26617368676084    1.52671493462276
H         2.72770767185512   -0.64148887348583    2.33931469695934
H         3.15355066846853    0.74300954116513    0.43337654001420
H        -0.85043759196301    1.60358915042134   -0.52378858144308
H         3.30161858825464    3.27537616517386   -0.77476145654388
H         3.88668263117892    3.03018187441602   -2.42286250663214
H         4.07725413802295    1.78085960313587   -1.26718222866026
H         2.00783156984562    3.85628045675182   -3.33502559723377
H         0.29613340026113    3.15449431862805   -2.94472340591519
H         2.32945900357706    2.12295468537895   -5.04358653859497
H         0.67689568349761    1.62360283278566   -4.71415953860295
H         1.33808454776976   -0.42577483585890   -5.05982443694332
H         1.96829808504922   -2.26767145616504   -2.22944696811556
H         0.89303967713139   -1.20513637748120   -1.49183103832270
H         5.87996211536015   -0.47255602441030   -0.38920988357464
