32
 energy: -49.292352428327 gnorm: 0.125260450794 xtb: 6.4.1 (79825abcba525fcdf90b791dcacef51065a7a4e7)
C         0.88508824804121   -1.03240514877512    0.30642081213936
C         1.78136722305471    0.19451778227351    0.13322751699689
O         1.22666569920422    1.15224749719798   -0.78079244904879
C         2.17616483778379    1.92264700634192   -1.36797752280593
N         3.05863171519809    2.69784788210683   -0.84335823091216
C         2.04375455446094    1.97437472259923   -2.93249173692972
C         3.12182777669954    2.90279232428916   -3.55677442420454
C         0.59023725341385    2.19067069925696   -3.41777505505394
C         0.73760617419718    0.88149994262710   -4.21423750404944
N         2.00389856253782    0.61083620318322   -3.55134881591284
C         2.19849587456340   -0.53604829935284   -2.76186669062265
N         1.49534197885865   -1.62420424775798   -2.79053885149649
C         3.38217286733895   -0.70194264685433   -1.82765980599417
C         3.11309612318424   -0.35655903822510   -0.40003421032133
N         4.03513518532706   -0.67984465143396    0.45720367258234
O         3.81842360724034   -0.53249706626071    1.82052527293554
H        -0.13568589065312   -0.73404864153905    0.57056794955053
H         1.31797056453438   -1.67585758543095    1.07770389382344
H         0.93742404496891   -1.54593049749379   -0.65988274732256
H         2.03481703042851    0.68531155246968    1.07977624702285
H         3.29859052262162    2.56156404690165    0.14838824223081
H         4.09613994195511    2.40186411951448   -3.48680758438998
H         3.22439220591752    3.88508049346863   -3.08025648806529
H         2.84974020736454    3.00928413916327   -4.61028437700400
H         0.38262608772933    3.06075682475186   -4.04424793160013
H        -0.16128612485569    2.08726774890970   -2.62416616770789
H         0.84365261729434    1.10791035709319   -5.28409471306912
H        -0.11097053123515    0.21374299228632   -4.06183705181457
H         0.65173340030275   -1.44904307101167   -3.33160349631814
H         4.30817557017533   -0.22797918248808   -2.18305069631791
H         3.63976115844411   -1.75654478530562   -1.96459521396700
H         4.74465507269166   -0.65204394352055    2.10601982581106
