32
 energy: -49.287725825552 gnorm: 0.107992980878 xtb: 6.4.1 (79825abcba525fcdf90b791dcacef51065a7a4e7)
C         0.75711322340889   -0.71073892463589    0.81237524601546
C         1.82913537283073    0.09529779907236    0.07771540503242
O         1.25427145193637    0.94931001345258   -0.92256809913316
C         2.04034041875942    1.97473403126051   -1.33542582436057
N         2.93423605383093    2.66691301135172   -0.72162744576303
C         1.90952214182026    2.08921061977506   -2.89673766812631
C         3.03208234062525    2.92600087245086   -3.57021423305072
C         0.51169330136352    2.27616359151086   -3.53401273512073
C         0.73320972822627    0.89039691393167   -4.16692607214432
N         2.01634725969169    0.72328066487394   -3.50224047694651
C         2.31259853975650   -0.50417211428114   -2.88410693771098
N         1.71220860462469   -1.63070364333893   -3.10724256009223
C         3.43556857308176   -0.61992906398605   -1.87074949335508
C         3.09453710663336   -0.62276053143997   -0.41696253809296
N         4.07858273179830   -1.05724199119109    0.31269935398357
O         4.02138361872776   -0.69174421731866    1.65078031156118
H         0.23691786983983    0.07801289763013    1.36738652152455
H         1.29201164951261   -1.34858023531147    1.52183832741482
H         0.11971912481644   -1.32265819345231    0.16470754694370
H         2.13681025441600    0.78587322102322    0.87113306666152
H         3.01596379659431    2.57091484825433    0.30004741013030
H         4.00767559002241    2.46052694187311   -3.37874503050001
H         3.12935584896013    3.96917499378898   -3.24647903938685
H         2.83231357002254    2.97613675345763   -4.64391540436131
H         0.31966387823242    3.10408400829801   -4.21979186224366
H        -0.28795930529459    2.19483401189376   -2.78619201159308
H         0.81875464445342    0.94425776504701   -5.26094757757776
H         0.03637946825907    0.13326659684400   -3.80583197063211
H         1.01986841675508   -1.62870912484934   -3.85274165777168
H         4.18997105335523    0.17299392554412   -1.97358480887346
H         3.95909615324019   -1.56968994551782   -2.01622063793241
H         4.77646563935241   -1.10647692907446    2.11072731004319
