32
 energy: -49.283854698948 gnorm: 0.121852180425 xtb: 6.4.1 (79825abcba525fcdf90b791dcacef51065a7a4e7)
C         1.78956581270991   -0.98525529201069    1.23434682129263
C         2.44007725058798   -0.04513850332927    0.21863667066864
O         1.30769030256044    0.82040996159605    0.04864213691176
C         1.07113131892690    1.69210616386446   -0.96330445091635
N        -0.04471833795269    2.33223029161355   -0.95780445392506
C         2.02656346040841    2.00130535518755   -2.17138484217440
C         3.42334557964864    2.56075638484356   -1.78415849463429
C         1.26396012277339    2.91082161160020   -3.16446728169902
C         1.38095482966234    1.75380300493067   -4.17323796292268
N         2.05903344919648    0.91232516264422   -3.19943041907678
C         1.86216146237328   -0.47961359090970   -3.18386912883209
N         1.62651264094855   -1.22845973429313   -4.21490257745626
C         2.03191793254896   -1.29757199058206   -1.91758262142692
C         3.06320086565985   -0.66660047618071   -1.04114807939648
N         4.32743619461717   -0.92018597194124   -1.20525130548977
O         5.18786126441944   -0.58829486497496   -0.16754324879640
H         2.36805096628221   -1.89661561996702    1.42288711327330
H         0.78184073833759   -1.31598116888956    0.96712724448822
H         1.75641555025007   -0.40752718208911    2.16457323639530
H         3.24365933737191    0.46406785764940    0.76272724390283
H        -0.54699187883358    2.12983997676990   -0.08231942216013
H         3.97106661153142    1.92336973063005   -1.07786638719454
H         3.28984349737331    3.51494187388060   -1.26053066084945
H         4.00643196646342    2.77450446378303   -2.68392368191532
H         1.82218056303868    3.81337818418542   -3.42215334681252
H         0.18990085793910    3.00722878273148   -2.95856200711092
H         2.11418048461026    1.89443176732458   -4.97928118241941
H         0.44350923104359    1.49640695705040   -4.66735404019392
H         1.42667532986711   -0.75993356205436   -5.09561597970032
H         2.34707358839052   -2.33476227051192   -2.10017047468243
H         1.02772477779284   -1.43974732110920   -1.50688686225550
H         6.09947157063468   -0.67660772263609   -0.50646921609724
