32
 energy: -49.292660861526 gnorm: 0.128530147701 xtb: 6.4.1 (79825abcba525fcdf90b791dcacef51065a7a4e7)
C         2.22613093120829   -0.47337412046479    1.63069673443532
C         2.49486297318198    0.31515000373381    0.34825196057272
O         1.31468199661912    1.07945299883414    0.05948515473151
C         1.05494321609683    1.72588891674944   -1.10434758721168
N        -0.07824483621153    2.28813920090861   -1.33816168233737
C         2.02628373743388    1.84330178285518   -2.33342232360087
C         3.41317969419050    2.36508556677911   -1.86631285050637
C         1.41726967034596    2.58348800547529   -3.54842133601275
C         1.88506385970724    1.41795395135767   -4.43875670456442
N         2.22234735268423    0.66673943539081   -3.23955142771489
C         1.69270067221293   -0.61778487862624   -3.02515481895730
N         1.42777547496240   -1.40433799693126   -4.02038329019735
C         1.61783464429911   -1.18429626687894   -1.61987383983392
C         2.76024477727469   -0.62952553595229   -0.83442139164302
N         3.98707143788093   -1.03715186352757   -0.96956411546211
O         4.97128436880019   -0.36938795904911   -0.25350735020729
H         3.04192503301314   -1.11938144161658    1.97409836882435
H         1.32286728607938   -1.04736245812781    1.40498029966548
H         2.10711644036182    0.24707273309420    2.44738625379932
H         3.35610939645405    0.98225889218738    0.46779340582084
H        -0.78953224946723    2.28852283139591   -0.59399460163796
H         4.10032947501199    1.62283591470494   -2.29292655867748
H         3.60405395930213    2.58470878352999   -0.80904679944011
H         3.65875757984114    3.30877245300467   -2.36068308406770
H         1.86057160646710    3.57059698374650   -3.69579768173507
H         0.33584774379735    2.61882326199532   -3.36248407693031
H         2.78099622626748    1.61131402259323   -5.04457767991785
H         1.06424954354315    0.96369240282432   -4.99474050024259
H         1.49203685769464   -1.04278264520742   -4.96920151348688
H         1.49929497215006   -2.26917442903422   -1.75183140886161
H         0.67759659237759   -0.86059131326119   -1.16330377479444
H         5.79287003511536   -0.84779961714425   -0.47671711973882
