32
 energy: -49.279443170031 gnorm: 0.121502694815 xtb: 6.4.1 (79825abcba525fcdf90b791dcacef51065a7a4e7)
C         2.10787674722001   -0.92092199268292    1.24183771914618
C         2.41851057772642    0.07373853554080    0.12254827407850
O         1.25786981153427    0.91611916659592    0.06188241011522
C         0.86108300776259    1.74564288697183   -0.93526399448806
N        -0.26724713502369    2.35497111089385   -0.83279547737600
C         1.89237982826474    2.03718533241543   -2.08389049327310
C         3.36760911374694    2.29282742707517   -1.66882946980925
C         1.24129020452361    2.98753238130269   -3.11729224689206
C         1.39263980564122    1.82973743939444   -4.12058795368048
N         1.67874912073377    0.90183811917346   -3.03738852151789
C         2.01666156365578   -0.44177237390155   -3.27617761095979
N         2.15064460154626   -0.97395547762558   -4.45012844236153
C         2.05467087249044   -1.37442250929774   -2.08032071448997
C         2.94661856664590   -0.78193020344074   -1.03955695645181
N         4.20085603647456   -1.06884998434299   -1.22419670442379
O         5.06346164662392   -0.66546917402479   -0.21399053723955
H         2.75249639490767   -1.80516692960224    1.29968717793147
H         1.03598480647570   -1.13826976203148    1.25200365567734
H         2.42704773500527   -0.44261459952583    2.17432997529548
H         3.26363271486163    0.72008569982800    0.38536712766124
H        -0.87968403054434    2.17891684054196   -0.02431509869381
H         3.43038085670215    2.37184047658911   -0.57570309742213
H         3.73479003981117    3.17514155897040   -2.20658294390811
H         3.89857287208545    1.37935131566760   -1.94971067872520
H         1.70983250233638    3.96274947249215   -3.26575190701201
H         0.19784981473631    3.14437099505176   -2.81409522548765
H         2.28910618205738    1.77868915950736   -4.75371044652661
H         0.51560600259075    1.56409577486462   -4.71173420480161
H         2.12184074392605   -0.37743375858668   -5.27380313040361
H         2.40961674664385   -2.39242146634188   -2.29506854027062
H         1.07351076761600   -1.53826888435194   -1.62450504432389
H         5.93682090610945   -0.89075577644328   -0.58841392601286
