32
 energy: -49.282731521665 gnorm: 0.123233597771 xtb: 6.4.1 (79825abcba525fcdf90b791dcacef51065a7a4e7)
C         0.92301024189868   -0.37465550643741    0.96452803570057
C         2.00594566477391    0.34370410942605    0.15838776056061
O         1.24536524617883    1.25568570343276   -0.64794932831540
C         2.01529800007536    2.15160016074154   -1.31457605829097
N         2.76025482933927    3.09563626573448   -0.85769010859916
C         1.91226612278001    2.01620896259519   -2.87629519300473
C         3.09272892883651    2.60269403780327   -3.69877488107109
C         0.52864919639119    2.23922828717893   -3.53269674187393
C         0.50677809001506    0.76757222537090   -3.98408149091278
N         1.78719032081940    0.59000008173659   -3.31685639243915
C         2.57552683071671   -0.51844900839025   -2.96138433065608
N         2.37277375255602   -1.69036654449502   -3.47600200525155
C         3.57171159725315   -0.28683468476400   -1.84097127364341
C         3.06026161603581   -0.58147198004724   -0.46932452306213
N         3.80946161052051   -1.33351628165992    0.28077891755004
O         3.54710277080944   -1.50707253890450    1.63295016393938
H        -0.00986580044120   -0.51521420246178    0.40707337073304
H         0.70930284411496    0.25402899417331    1.83365442549807
H         1.39030709154400   -1.29455218525760    1.33278561496007
H         2.67139257955615    0.87181469305223    0.85073844125027
H         2.68715014273741    3.23367400604117    0.15981462127829
H         4.05520393926888    2.47674213346130   -3.18605020148408
H         3.04362251887270    3.67778886183866   -3.90910448041644
H         3.03353811449559    2.12334045089635   -4.67957657595574
H         0.54746630013329    2.84192453677937   -4.44320411889927
H        -0.31634154835636    2.56407624010813   -2.91160168081516
H         0.53615893878625    0.64816978518158   -5.07586067734823
H        -0.25134382576115    0.11310382512424   -3.55265369046044
H         1.68802498216745   -1.60815564839831   -4.22397815088895
H         3.78950992247010    0.78718561250989   -1.75454568302057
H         4.45761030283178   -0.90163704258300   -2.02668680997441
H         3.93433031127556   -2.37849276456395    1.84362751200793
