32
 energy: -49.290804108779 gnorm: 0.122837160319 xtb: 6.4.1 (79825abcba525fcdf90b791dcacef51065a7a4e7)
C         2.01800644268537   -0.54464439543193    1.61098876767392
C         2.38915312587257    0.23622152858136    0.34958068605250
O         1.23293510517525    1.00784226666308   -0.00837713458412
C         1.03576414602394    1.74316610130460   -1.13099584384719
N        -0.09328865407397    2.35586199720624   -1.19993852068046
C         2.07149840105067    1.90018528394764   -2.30168471397505
C         3.55547957197481    2.26400792053384   -2.01997043786118
C         1.60053454532664    2.76717325206715   -3.49396039228338
C         1.56822130138065    1.50013765326767   -4.36778803399118
N         1.99558721366009    0.71781204637558   -3.21822215259254
C         1.67441517308383   -0.64275896781922   -3.06926157729587
N         1.55019898655355   -1.40773144108600   -4.10787523497386
C         1.77077500813330   -1.29629068377803   -1.70362407931662
C         2.80043482261880   -0.64128488092963   -0.84305735474526
N         4.06832619788615   -0.89642579579055   -0.97298429099573
O         4.99283758635621   -0.32839210914598   -0.10699500705126
H         2.88901185578453   -1.15453403730594    1.87585544465722
H         1.18871726522993   -1.23355964030797    1.42667659825140
H         1.76826636650787    0.17141359285404    2.40160924507396
H         3.13298616936860    0.97423858765838    0.67069290368027
H        -0.70697700330712    2.26281699723642   -0.37869323515789
H         4.01999888755776    2.69468250887582   -2.91654715952501
H         4.17051617443462    1.36646342162589   -1.88350541971208
H         3.76429855321724    2.74521903203352   -1.06075937756327
H         2.33607892027889    3.48537860106751   -3.86243844971254
H         0.67493917856031    3.33199768265084   -3.32208484954432
H         2.40677438208477    1.57293587655175   -5.07392621281111
H         0.62425468021292    1.23644154147570   -4.84590836421752
H         1.65102852474105   -0.92047959284110   -4.99530233719285
H         2.07379295347103   -2.34655534305372   -1.82002578242355
H         0.80003084229382   -1.31028346606358   -1.19889773685611
H         5.79861694625843   -0.85900693108022   -0.25822614481882
