32
 energy: -49.294608093385 gnorm: 0.119570297125 xtb: 6.4.1 (79825abcba525fcdf90b791dcacef51065a7a4e7)
C         0.88803083181116   -1.27469259733726    0.30831600224961
C         1.74339969620811   -0.01786291831129    0.14286183772731
O         1.21955296594064    0.88077932493299   -0.84627881912350
C         2.00608212775205    1.93431862394474   -1.17986116651243
N         2.63702644528531    2.81522754107202   -0.48645049770637
C         2.14582428338972    1.92239084944795   -2.74454734976553
C         3.47941784702131    2.52167037989263   -3.27021097663000
C         0.94133379386264    2.50323028165641   -3.52353683866891
C         0.67464643201030    1.08824453748573   -4.06823060291306
N         1.78037500878159    0.57086404570106   -3.27711846388724
C         1.93726622197627   -0.73445564373362   -2.77910255521580
N         1.26260668475115   -1.75582828672816   -3.20450034289927
C         3.13335934294808   -0.92964586689017   -1.86662423337754
C         3.09742808621012   -0.41660108552844   -0.46473229617511
N         4.25237671417331   -0.32034795606992    0.12378739945792
O         4.23913251744351    0.24026807304588    1.39376979112423
H        -0.02906371208542   -0.96402624282479    0.82134054139556
H         1.39682323797368   -1.88496903061695    1.05997330330602
H         0.66760825879526   -1.81147569132396   -0.62091361835944
H         1.80699898803564    0.51069528207026    1.10080296199089
H         2.59274719727559    2.74835342444654    0.53984467670407
H         4.38670838567700    2.16109221922488   -2.76829874609615
H         3.39392019443615    3.61088576624466   -3.17651542801310
H         3.46647180928361    2.20450262317812   -4.31639088082438
H         1.12152212475537    3.21005740733737   -4.33627794818394
H         0.08091705819682    2.79008197321544   -2.90491435482116
H         0.86170970286516    0.97644454922180   -5.14508252647266
H        -0.23680785556566    0.60447874580299   -3.71548506398216
H         0.54813646791347   -1.63116136255815   -3.91801157341579
H         3.95889234589660   -0.36839378518642   -2.32696806721959
H         3.41266185288941   -1.98703893098237   -1.90124680213009
H         5.10047401936815    0.25881699797341    1.85360680094878
