32
 energy: -49.290091681016 gnorm: 0.126455414888 xtb: 6.4.1 (79825abcba525fcdf90b791dcacef51065a7a4e7)
C         2.16542390968015   -0.70650793046038    1.47196297251253
C         2.48645495027736    0.07890540157783    0.19967496132014
O         1.22008360306551    0.69459589039095   -0.07889519814980
C         0.94510419572500    1.60533366163978   -1.04574233518017
N        -0.23509592128575    2.07096246186514   -1.25840904479609
C         1.97912033862797    2.05995302850404   -2.13755040114440
C         3.44847890697652    2.26451941011388   -1.67595750013801
C         1.46082881753385    3.11581260118171   -3.14329931451104
C         1.36435287121415    1.97800102161102   -4.17580854198460
N         1.86366817108931    1.01599185074131   -3.20555121819198
C         1.91307965752535   -0.38629480728465   -3.29298603884510
N         1.63255852990630   -1.02563702010300   -4.38471875016554
C         2.09507580721333   -1.31779899236074   -2.10954527126685
C         2.92390922136243   -0.80705084328905   -0.97730036913731
N         4.16493614406032   -1.19352606558451   -0.97336043202733
O         5.01982330513109   -0.70440092755229    0.00502883638137
H         3.08040703579575   -1.14257514932939    1.88840195052247
H         1.48197425384101   -1.54378674703876    1.30416403355743
H         1.78734138062838   -0.02644251612257    2.24316626822719
H         3.24903910064174    0.82422550945316    0.45272275643834
H        -0.90103448471486    1.58617512891297   -0.64097753812779
H         4.00069464089593    2.96580745813203   -2.31498917379020
H         3.92544040823067    1.30024703706087   -1.46343601776903
H         3.51248721019437    2.73852969455877   -0.69286413666987
H         2.20982306739748    3.89411270453099   -3.30416292263097
H         0.47094644602507    3.49827961006679   -2.86196941856089
H         2.04344357671494    2.06704003334759   -5.03488353543742
H         0.37000319875728    1.63500185538687   -4.46360704457190
H         1.12113167403515   -0.47404994094668   -5.06977501569269
H         2.62553731914800   -2.22659469809655   -2.42754847110318
H         1.07664886826075   -1.58418678815513   -1.81099405525221
H         5.92028688118833   -0.88030809286708   -0.32952361152878
