32
 energy: -49.287689984470 gnorm: 0.117985479861 xtb: 6.4.1 (79825abcba525fcdf90b791dcacef51065a7a4e7)
C         2.24176318077341   -1.02046854007170    1.28351647422439
C         2.43908046286014    0.06223182851814    0.22168898909205
O         1.22180361283019    0.81179409483757    0.09220557092704
C         0.92933577063340    1.58374888920132   -0.98408373682942
N        -0.28991204677998    1.95369949391719   -1.16151232401851
C         1.98981941578163    1.91537048470865   -2.09463067297265
C         3.35438783485419    2.46141815866139   -1.59092940595481
C         1.43351485077879    2.85725315707117   -3.18933550387539
C         1.94714920734862    1.86669025419316   -4.24997822770877
N         2.24600227466418    0.92130132133935   -3.18550496738818
C         1.65331192180948   -0.35320322813029   -3.21466918178719
N         0.86988132237922   -0.97600106570896   -4.03788861870239
C         2.04806488305909   -1.26728718391152   -2.07012763456520
C         2.94066746541796   -0.67850398314180   -1.02782153794776
N         4.19796031954308   -0.98867985561298   -1.13976814655410
O         5.06701109360039   -0.39436195656610   -0.23486041410989
H         3.19054613497837   -1.45537837218569    1.61733454342182
H         1.66361608638384   -1.88183338504067    0.93697315382877
H         1.80188001450151   -0.54381833313520    2.16640789920145
H         3.23020867894053    0.73020317277647    0.58085505851879
H        -0.98562777013719    1.53533510903629   -0.52853092134013
H         3.22839744149622    3.31543361039007   -0.91277555196819
H         3.94452932637803    2.73938182173357   -2.47237599208645
H         3.90740308677545    1.75710100489721   -0.96373976370286
H         1.89255434189648    3.84814352091634   -3.19562577960219
H         0.35098372276354    3.02491727378827   -3.11646760994077
H         2.86777380319734    2.13466491759721   -4.78639403016685
H         1.06129784791829    1.63898738037128   -4.84380181205776
H         0.77230795396642   -0.42376147352417   -4.88678124879744
H         2.53551162679514   -2.07938074947537   -2.62809251238171
H         1.14814982363245   -1.70864343528523   -1.63121276231332
H         5.99083808697700   -0.48358731949532   -0.53864626425441
