32
 energy: -49.283741584442 gnorm: 0.132253526937 xtb: 6.4.1 (79825abcba525fcdf90b791dcacef51065a7a4e7)
C         2.23406398509934   -0.96016130069674    1.41300724553184
C         2.38650331617515   -0.07226106907341    0.17726972056586
O         1.14645825483334    0.59836888379892   -0.09276028947527
C         1.03336504531302    1.66920372554327   -0.91760755559373
N        -0.06812178630431    2.33294009365345   -0.88458615920108
C         2.00159294371962    1.92897209351601   -2.12713974289876
C         3.45737857737862    2.25942589687793   -1.69653729404192
C         1.36860893569983    2.99566165833995   -3.05261315516414
C         1.07996396024719    1.93003730218014   -4.12551898329322
N         1.84363912516472    1.00867907216120   -3.29843014736249
C         1.97345759462729   -0.38278778937035   -3.45160112485702
N         1.59378010970806   -0.96837035958172   -4.54351180511709
C         2.28003322258734   -1.28761779806868   -2.27319171888788
C         2.98084979679386   -0.72365052130166   -1.08130076435952
N         4.25240706290854   -0.98535998219068   -1.01667322645020
O         4.86621768860574   -0.56833755719715    0.15663399452601
H         3.15650621592524   -1.55107714414810    1.43925528493777
H         1.33378219346006   -1.58027022161419    1.37760452931516
H         2.16843814558316   -0.31299946073766    2.29451997418121
H         3.02993348677377    0.73398498776754    0.54745177139946
H        -0.56995662901434    1.84654079059073   -0.12874748201355
H         3.52466591323784    3.32806811654353   -1.45449422800764
H         4.05653049868288    2.28746460281618   -2.61452948895442
H         3.95956185167710    1.62890220432979   -0.95795270459588
H         2.00134080660317    3.77583953334734   -3.48109115890765
H         0.49473115611056    3.45237976272024   -2.56987012502210
H         1.67133631995406    2.01970211934041   -5.04711592991064
H         0.05540040082627    1.58186210553673   -4.26061606644010
H         1.21947792917006   -0.35861720991432   -5.26684215449922
H         2.91537628981461   -2.11906992098042   -2.61001754950479
H         1.32468924996463   -1.70904075943332   -1.94606896026265
H         5.81418374537717   -0.78717877284419    0.07194514732846
