32
 energy: -49.284379030562 gnorm: 0.123343034632 xtb: 6.4.1 (79825abcba525fcdf90b791dcacef51065a7a4e7)
C         0.89836996606581   -1.25207460762686    0.26392206182524
C         1.77239246057117   -0.03832477433321   -0.05474358468667
O         1.17772871703536    0.87448538104017   -0.98936924365715
C         1.91116525654206    1.95277078855863   -1.36249355343898
N         2.51618247054061    2.94135874921677   -0.80432009486954
C         2.13140762286115    1.94821024646771   -2.91793095240531
C         3.47163608843103    2.68465571170383   -3.19245916611583
C         0.92654261855307    2.47457096785703   -3.73416690000288
C         0.43188577895872    1.01787086809768   -3.67639548271201
N         1.80902927130157    0.59517280897919   -3.47396313153598
C         2.10636982926579   -0.59304843099514   -2.78388117455224
N         1.32834065769539   -1.62914976401609   -2.76162120177152
C         3.39209385185393   -0.69111997730981   -1.98472512159142
C         3.17930934420279   -0.43468664669751   -0.52912500756245
N         4.21362560700642   -0.61059011813847    0.23819124685449
O         4.18110311789022   -0.41010062577834    1.61153288302543
H        -0.10556533514910   -0.84484362775384    0.42838177360646
H         1.36203223150174   -1.54153692044023    1.21129981363912
H         0.89368751101031   -2.06937097071849   -0.46559463118145
H         1.98112881600860    0.46918715935920    0.89390313517764
H         2.47378918859942    3.08626657394801    0.21397215736636
H         4.10082067876131    2.73787987301646   -2.29445996714697
H         3.27557895254815    3.72863971057433   -3.46474186905860
H         3.88702546964346    2.15507936930018   -4.05400193081685
H         1.20687319570444    2.81848195559924   -4.73204491673424
H         0.35090450511863    3.27526618678015   -3.25165000236823
H        -0.11619067602000    0.60242774307467   -4.53320420411539
H        -0.19396963898624    0.85505309716538   -2.79832769076223
H         0.46760429495965   -1.53745354447815   -3.29625428696408
H         4.06550648401864    0.12972160475334   -2.26961036388725
H         3.87870284546860   -1.66245184991120   -2.11516585353323
H         5.10590402243507   -0.51944490775622    1.90562544575034
