32
 energy: -49.284802031101 gnorm: 0.122163177477 xtb: 6.4.1 (79825abcba525fcdf90b791dcacef51065a7a4e7)
C         0.73074446629531   -1.07900104243361    0.18181093101261
C         1.65372671740409    0.13818474711391    0.10960058364214
O         1.15662609176154    1.23391912782897   -0.67310603044027
C         2.14200777623184    1.95631660033828   -1.26218598746054
N         3.20993779961498    2.39214373928512   -0.69254592875266
C         2.09582107783840    1.98681234398613   -2.83217000566894
C         3.40579369108776    2.55035061902141   -3.44887608188557
C         0.70689098568191    2.47326647581584   -3.31095178331665
C         0.47721727686937    1.04927675300561   -3.84900508793306
N         1.76075191976146    0.61164019788742   -3.32251694983247
C         2.08174552737548   -0.66669113752291   -2.83330705044610
N         1.72078472062111   -1.77165521734692   -3.40610069178953
C         3.20798663361267   -0.85213268419473   -1.83403376550842
C         2.97311889778908   -0.44923133002057   -0.41547299290883
N         4.06621225203130   -0.56817824646913    0.27772610184955
O         4.17262788981336    0.06465766528378    1.50878882851352
H        -0.22935435785262   -0.69787967025216   -0.18387597391113
H         0.63637599094210   -1.42761887419740    1.21421392036984
H         1.05492307340289   -1.92992351178630   -0.42731062526031
H         1.76687477478705    0.53114394003896    1.12638494170020
H         3.12996987305346    2.29033169494188    0.32870527982221
H         3.77144576640013    3.24171650650400   -2.67853823434687
H         3.23506911688710    3.07159787297528   -4.39841980523896
H         4.11988057502217    1.74187387558886   -3.62692285781553
H         0.59331452029503    3.21932404861941   -4.10033066392640
H         0.07486342481443    2.80288473426142   -2.47597418076057
H         0.37056831640009    0.90134067222250   -4.93244539038602
H        -0.38633326929556    0.60451430511928   -3.35334946895661
H         1.07582985945353   -1.66574051001553   -4.18579494087727
H         4.06192458506716   -0.24596371589057   -2.16836031999717
H         3.57299277302181   -1.88318079119596   -1.80242626460891
H         5.02588368861187   -0.10724291421491    1.95162971873397
