32
 energy: -49.282245838187 gnorm: 0.140255976414 xtb: 6.4.1 (79825abcba525fcdf90b791dcacef51065a7a4e7)
C         2.17666344685904   -0.50510269482531    1.46715188609243
C         2.55955366026477    0.32256390049632    0.23954652630300
O         1.33358682209353    1.03309144814921    0.01035574743350
C         1.00019408754193    1.73727849080170   -1.09996862592785
N        -0.14161675449014    2.30561375118468   -1.26781564403661
C         2.03281360525907    1.83424639581073   -2.27988688725091
C         3.50342735766993    2.21152438514136   -1.94990733671690
C         1.43777010927060    2.72654825638082   -3.39555576217710
C         1.78359062947208    1.63151106499006   -4.42088488909516
N         2.09221696050469    0.74668249791258   -3.30822821328896
C         1.73715678513235   -0.58907584649284   -3.05098097667780
N         1.59109879131101   -1.45807726880632   -4.00115699960072
C         1.62849564419897   -1.16425217587932   -1.65143831712381
C         2.81239564472566   -0.72886522663133   -0.85229750443958
N         4.02444304218040   -1.19724056385153   -0.88534441760637
O         4.88037178317736   -0.44852553750104   -0.08901984551123
H         3.02634385509404   -0.95628414055244    1.99179335511457
H         1.43771199726066   -1.27574482414880    1.22975517216191
H         1.73654651745960    0.23281224592018    2.14683454937439
H         3.38323392713385    1.02217738764130    0.42164986837646
H        -0.84579364650628    2.07419193033501   -0.55346738994607
H         4.00908264899433    2.63616883964917   -2.82688991056694
H         4.09532946809730    1.42127244349240   -1.47279873930192
H         3.50992222053640    3.13432154379236   -1.36368332433026
H         1.81921625286562    3.74484114736190   -3.49654566791776
H         0.36777300444074    2.93844901780279   -3.27106120997985
H         2.70869295678499    1.64836157255585   -5.01334055894673
H         0.94222767714377    1.38293992417653   -5.06859504009953
H         1.73102017460301   -1.06694418814876   -4.92988986919672
H         1.52131001935071   -2.25828734543555   -1.65627309494992
H         0.73584877194006   -0.80693068369508   -1.12914373428872
H         5.73859417091400   -0.74204691518448   -0.45096301527543
