32
 energy: -49.288067635012 gnorm: 0.122867151491 xtb: 6.4.1 (79825abcba525fcdf90b791dcacef51065a7a4e7)
C         2.09938317688396   -0.76478290536114    1.48217876277722
C         2.49079339358603    0.12508098510066    0.30167374100878
O         1.35129052398072    0.99243543431782    0.20368422949063
C         0.99098819581922    1.53222074490316   -0.98739274172246
N        -0.26253006126393    1.76167962397983   -1.16331937233956
C         1.99647894737108    1.96024136783372   -2.11597574898511
C         3.40106215550897    2.49375491110621   -1.72045169876676
C         1.27075336153926    2.91204108325189   -3.09699362743108
C         1.56165011661618    1.91547861688733   -4.23376116314758
N         2.08950452516410    0.98436018109606   -3.24858865778530
C         1.92301459970140   -0.41137858090993   -3.22234699021681
N         1.80047492591777   -1.17987938085108   -4.25855228811508
C         1.77517788318684   -1.05039237980496   -1.85444334590331
C         2.89982596624330   -0.66723263091256   -0.94992008633575
N         4.06374013992574   -1.18827467421877   -1.20160523071633
O         5.13454321555786   -0.80026171418569   -0.40778678124989
H         2.93201720890960   -1.40228572729754    1.80011095994110
H         1.26005680452779   -1.35114053345035    1.09745586562279
H         1.70972044298367   -0.09839675569821    2.25953475753847
H         3.42585996803602    0.59797346734364    0.62275477997922
H        -0.95643585341128    1.47799531784296   -0.45781774765700
H         4.08233554377163    1.64438925510334   -1.58061904446356
H         3.42083131509405    3.20660700928644   -0.88742714193573
H         3.81877446797703    2.87341123951991   -2.65673844263755
H         1.75514019961543    3.85455176922100   -3.36093212307085
H         0.23916249674022    3.08496639565958   -2.76350936481606
H         2.37515737917692    2.20231689583466   -4.91422549841606
H         0.75394339263514    1.42351611276471   -4.77670721682609
H         1.83977191186433   -0.71362256187379   -5.16197253651860
H         1.73413706956158   -2.10835001878657   -2.15019049496967
H         0.86503470566893   -0.61387498523650   -1.43209197176572
H         5.92572232990520   -1.01988245254131   -0.93646973254567
