32
 energy: -49.293646211215 gnorm: 0.117581795714 xtb: 6.4.1 (79825abcba525fcdf90b791dcacef51065a7a4e7)
C         2.18629136669169   -0.28857372592821    1.65360467443625
C         2.42856277395322    0.22965857763233    0.23536927526336
O         1.23572243713680    0.96998750814441   -0.06365830229246
C         1.03793233766487    1.80531395922019   -1.11387691002961
N        -0.05829552996020    2.47814972667977   -1.09182914407622
C         1.99171591154615    1.97871382058699   -2.35005745469203
C         3.38435910272027    2.48850616781297   -1.88682241922951
C         1.43688501962841    2.75165072677365   -3.57060143585407
C         1.51776514780137    1.44471275679316   -4.38015047716374
N         2.01728764016650    0.74864297221024   -3.20450561521456
C         1.87598642592207   -0.64940298141409   -3.15983234662057
N         1.72757886735868   -1.34822407562854   -4.24101463693544
C         1.83706202867579   -1.28385993881715   -1.78240577428715
C         2.87218787595871   -0.78810645413713   -0.82713095349339
N         4.08248445559899   -1.26108661542754   -0.85872819181547
O         4.94938924535359   -0.77213949271102    0.10911880759998
H         3.13046231503295   -0.67598663477066    2.05263176472251
H         1.45904894807331   -1.10500729410779    1.68276671728936
H         1.74461537290653    0.47426260702096    2.30413748086695
H         3.19714759922677    1.00842895370785    0.29752963069160
H        -0.65719298319335    2.07084017402523   -0.36029967770500
H         3.93539194031273    2.69505744500206   -2.81354136632944
H         4.02782507064802    1.69595196985889   -1.48646227015602
H         3.25236117912298    3.28832047466428   -1.15324965863484
H         2.13106044574924    3.47895153919807   -3.99695168788331
H         0.44686626747455    3.20357928248200   -3.42597061026045
H         2.15957161652329    1.50482168226069   -5.26985455689451
H         0.57547578848738    1.05267687014344   -4.76434613722550
H         1.78193027024940   -0.89224795622785   -5.14889101559922
H         1.80852790313234   -2.37021829921909   -1.94804515032998
H         0.84198957811839   -0.96119747827054   -1.46145643392218
H         5.79704141218876   -1.20153213499019   -0.11629433776919
