32
 energy: -49.282957871021 gnorm: 0.122237963354 xtb: 6.4.1 (79825abcba525fcdf90b791dcacef51065a7a4e7)
C         2.19653872785003   -0.96548243687361    1.30418082366348
C         2.44995569074688    0.13150499798989    0.26926525922006
O         1.23404994492983    0.85257716681371    0.02026600212681
C         0.93343861641945    1.74102714614815   -0.95960123092865
N        -0.28889438409307    2.12873287098512   -1.06205075867565
C         1.99490090574392    1.98951015798696   -2.09073648199435
C         3.45460850330576    2.22233758844411   -1.61222305311413
C         1.51234547082220    2.97258154734182   -3.18422049818360
C         1.54053390213375    1.83139200659671   -4.21712414658229
N         1.89906798770065    0.92340404654196   -3.13861227303896
C         1.76913535416871   -0.47418546130346   -3.21833233935117
N         1.36976036497103   -1.07650561964398   -4.29399070352614
C         2.00609911114970   -1.27286973564947   -1.95053649204998
C         2.93552053577945   -0.64437801709705   -0.96515280891758
N         4.19283579839455   -0.89553893247740   -1.17870131432021
O         5.11430683405884   -0.53556339519593   -0.20472505116776
H         3.12644831251062   -1.26969673620976    1.79762989614723
H         1.82514241187395   -1.89789738615147    0.86948222495768
H         1.53552075740140   -0.56663869619452    2.08146378603600
H         3.26399201989549    0.72553367538288    0.70001416429057
H        -0.86772119347147    1.64960448916345   -0.35841014996158
H         3.62228421663948    2.15762442684130   -0.52926152235849
H         3.59212973186905    3.26119500329657   -1.93524325264579
H         4.24667556315902    1.59423026922713   -2.02859587938566
H         2.07804526922714    3.88303636094526   -3.39320925274405
H         0.44522556783945    3.21464719993788   -3.09503551709129
H         2.36565111801363    1.77320681288522   -4.94024103969556
H         0.59821038207054    1.75535947631960   -4.76068012933810
H         1.28449081368004   -0.51216640973614   -5.13622474410266
H         2.35761804474221   -2.25234361049325   -2.30478281578246
H         0.95308771062299   -1.39883358137766   -1.68111336544497
H         5.96677641100008   -0.47476968570568   -0.67727459147810
