32
 energy: -49.290148127922 gnorm: 0.114960124043 xtb: 6.4.1 (79825abcba525fcdf90b791dcacef51065a7a4e7)
C         2.14769787371567   -1.06840803248473    1.31903159561295
C         2.39954340272621   -0.07909961464679    0.18039448022491
O         1.21796414112967    0.72724316584233    0.06184391675721
C         1.01826213374825    1.65974786728807   -0.90273080100960
N        -0.06502412079842    2.35357784320651   -0.90339944674507
C         1.94760674091196    1.98639588367630   -2.12646794259384
C         3.42556244902308    2.31241072901396   -1.77533944990529
C         1.30482039979756    2.95663099249973   -3.14650026446386
C         1.27788836910803    1.82890668368784   -4.19412169013181
N         1.98234478946018    0.98580332787172   -3.24065717874883
C         1.85323462517285   -0.41270666866617   -3.30385968211251
N         1.68252640570425   -1.01803070602549   -4.43689648084124
C         2.08291852331163   -1.33103733201721   -2.11841934929309
C         2.97767618879676   -0.71813054074064   -1.09198815597412
N         4.26412483788118   -0.90302943388633   -1.07227258707717
O         4.92565380319257   -0.43279067306788    0.05403818416999
H         3.03410048296585   -1.68792733628074    1.49582640765917
H         1.22088658193965   -1.62477401944677    1.15237792069625
H         2.12839724247408   -0.47290829176684    2.23837779453402
H         3.25522068536522    0.52563497490782    0.50161449791983
H        -0.64276594726151    2.24806676068202   -0.05794313385934
H         3.62766203329166    3.37123302373210   -1.56759027495932
H         3.99605572328271    2.04192071984203   -2.67191707617269
H         3.81764230783832    1.79044527179505   -0.89836692554793
H         1.89105173928959    3.80540506900785   -3.50501931693347
H         0.29769775105719    3.16361486235548   -2.76158952534545
H         1.81094531418425    2.01657514186473   -5.13631743165800
H         0.27438708203026    1.51994603123180   -4.48863171717684
H         1.57126577880694   -0.31534900462387   -5.16419787905065
H         2.56160635523309   -2.25946567173598   -2.46091585571687
H         1.18265385612689   -1.66521207902665   -1.59388195763297
H         5.83988804249771   -0.71799093459366   -0.13711591552010
