32
 energy: -49.285071754513 gnorm: 0.131774756086 xtb: 6.4.1 (79825abcba525fcdf90b791dcacef51065a7a4e7)
C         2.24946393347424   -1.03009387055819    1.34992060276586
C         2.38650813444684    0.01047410597965    0.23767557877999
O         1.09893394993593    0.60864435501805    0.02621029602272
C         0.96287077940592    1.62221893761653   -0.86485854663035
N         0.07415475011802    2.54661029704131   -0.76193127218588
C         1.88066130462723    1.94068512542595   -2.09942436566339
C         3.25769093015443    2.47973378863493   -1.62282605987711
C         1.30768184118064    2.79481419651959   -3.25577831527576
C         1.76044034331676    1.75469718999532   -4.29653018505145
N         2.11383879689599    0.91295186603104   -3.16394418845425
C         1.88094301993047   -0.47049155487150   -3.25525727572203
N         1.89337548689215   -1.08752184793950   -4.39475274694140
C         1.76212328294469   -1.24414997012518   -1.95576151388428
C         2.81422229011800   -0.81078951808320   -0.98875921916618
N         4.06083706933626   -1.10986644990016   -1.20330764604758
O         4.91722891343694   -0.44360240693997   -0.33727862929803
H         3.21539043798941   -1.50988281656298    1.54372132163165
H         1.51176157196316   -1.73957059635869    0.96426046922464
H         1.83321212963930   -0.60019943627303    2.26758889871468
H         3.09896344881212    0.75075697201855    0.61906585237817
H        -0.64141170641398    2.59537371736275   -0.02348604672875
H         3.91984462890265    2.50728243206461   -2.49798443120077
H         3.58634913865016    1.95828000230444   -0.71588141317220
H         3.20099790346903    3.49921155947486   -1.23204946882048
H         1.95038412819814    3.67403453974331   -3.33656132314160
H         0.25000381010949    3.08603116107477   -3.21329908065245
H         2.60804173210442    2.12127358812087   -4.89175754152377
H         0.96059173270605    1.30788999627950   -4.88798027382501
H         2.04796817820089   -0.42828368322037   -5.15410376317795
H         1.84126440431766   -2.31570895063256   -2.18797504363815
H         0.76673186469930   -1.21868955332943   -1.50206954224923
H         5.77039486127505   -0.62111497675972   -0.77807390708360
