32
 energy: -49.287451769341 gnorm: 0.122569650807 xtb: 6.4.1 (79825abcba525fcdf90b791dcacef51065a7a4e7)
C         1.91914067441098   -0.71519744487365    1.47898986948679
C         2.26781459867526    0.14619157243989    0.26445816278211
O         1.12280287971376    0.96824124336402   -0.00675207138801
C         1.03409413119547    1.82215678733892   -1.05689935654815
N         0.24564574815954    2.83220625857303   -0.94262417601392
C         1.98192089647363    1.87086467991354   -2.30876392907714
C         3.39728666385864    2.28010838006374   -1.81562161874224
C         1.49961141265890    2.73462511579331   -3.49884453950212
C         1.53994446373687    1.45441726432999   -4.35291667085808
N         2.00828045922237    0.67848154512023   -3.21504064481792
C         1.85890609489514   -0.71552024891512   -3.11044373969782
N         1.91206917087281   -1.54625578241293   -4.10361192329434
C         1.75433182968675   -1.35679009486198   -1.73960752553697
C         2.80190511409072   -0.72381036958199   -0.88419304324135
N         4.06926069590956   -0.95287791514218   -1.05987552147584
O         5.02259178448337   -0.32588206547838   -0.26908031475865
H         2.68278760629510   -1.41188207458607    1.84264361901453
H         0.96112084993694   -1.24255391216092    1.45926922891819
H         1.81552242445759   -0.05481600987291    2.34694695840716
H         3.10031990848793    0.81912918966061    0.49931922675183
H        -0.39362921446887    2.86577438504921   -0.13645093971992
H         4.09225784567168    1.45210644081185   -1.62447648334125
H         3.19943565387126    2.92839196494969   -0.95361103994174
H         3.84826783111951    2.96331307099547   -2.54026132998590
H         2.30281170753798    3.42102339197799   -3.77515456012955
H         0.52814363559757    3.24523410772787   -3.47014896059067
H         2.29947812563751    1.57046388543005   -5.13824703047603
H         0.53469432803204    1.21872434467505   -4.70381364619249
H         1.96656558004672   -1.03544358786735   -4.98179690828657
H         2.11906546831279   -2.38816371860432   -1.84760252122011
H         0.77081124022288   -1.18546298413687   -1.29169794286450
H         5.87360373188717   -0.37993379934466   -0.74506392612521
