32
 energy: -49.287734763853 gnorm: 0.124612129490 xtb: 6.4.1 (79825abcba525fcdf90b791dcacef51065a7a4e7)
C         2.01447697225528   -0.99707946100974    1.34559483126537
C         2.43589448763246    0.00122846662690    0.26650244871214
O         1.18610800400804    0.62107134880757   -0.07143398895746
C         1.02780244294014    1.64078842525405   -0.95175593989797
N         0.00454106910541    2.40880841650004   -0.81762524644773
C         1.96559608836702    1.96020312689614   -2.17094839503791
C         3.30014382433053    2.47493044096964   -1.56434464627898
C         1.39026963884746    2.84601767148996   -3.30202241505095
C         1.69384032113306    1.72283359636993   -4.31013970696164
N         2.07790680776103    0.87214882820122   -3.19434176336551
C         1.76359063660863   -0.49800720615500   -3.17505462656259
N         1.57069046313060   -1.12087487661664   -4.29494580753886
C         1.85713561072552   -1.24401325065400   -1.85745111570384
C         2.95183591915519   -0.76135112448182   -0.96387653634644
N         4.21123959988258   -0.98476266355597   -1.19521196377768
O         5.21394612101914   -0.38299036016485   -0.44703368322535
H         2.79152569763558   -1.35708170017443    2.02923495981649
H         1.49931867353728   -1.78250617127214    0.78522660875562
H         1.33954126596306   -0.55229381800370    2.08506586731580
H         3.14723388034082    0.76441605950652    0.60207777377607
H        -0.46599762879132    2.17714457013868    0.06817370549098
H         3.84302668081613    1.58749310737957   -1.21385669557050
H         3.12317117884982    3.09720340834607   -0.67894310309559
H         3.93203750614457    3.03961171762767   -2.25506947712648
H         1.82363137126916    3.82987507591386   -3.49396703768573
H         0.31275184934418    3.01252338214241   -3.17346937345502
H         2.54537391100391    1.88568470115087   -4.98502639212829
H         0.71872770894392    1.57403061738865   -4.77513512398980
H         1.44775647123690   -0.51852418142513   -5.10560522650805
H         1.88983385571539   -2.29341708722239   -2.18319256947448
H         0.94492727880154   -1.11598252626705   -1.26688121257177
H         6.05067420331794   -0.56512439098645   -0.91651918164644
