32
 energy: -49.286892360211 gnorm: 0.125673092923 xtb: 6.4.1 (79825abcba525fcdf90b791dcacef51065a7a4e7)
C         2.02543614607567   -0.87493635128632    1.32556337167525
C         2.51405222577475    0.11262754146910    0.26508060561935
O         1.33209360473351    0.91025512866839    0.10034894108929
C         0.97927130370463    1.80994763871107   -0.85144941946689
N        -0.14463626137713    2.42578009847033   -0.73968289827792
C         1.84925935968064    1.98951136817507   -2.14713092785538
C         3.33272738773723    2.38223005933576   -1.90418109360448
C         1.17869766226780    2.91831857697539   -3.18764069709146
C         1.17226865456022    1.77504566190067   -4.21860326328074
N         1.75157096603646    0.92150947449706   -3.19290277950232
C         2.09860685438829   -0.43315506549932   -3.33762409527669
N         2.18893111087002   -1.01918588279881   -4.48990021867544
C         2.15175354908026   -1.28181914846952   -2.08132023997329
C         2.94634805723760   -0.73611933131940   -0.94086494386727
N         4.16509651132252   -1.16369929766908   -1.08699507138194
O         5.06491536520275   -0.71736826667837   -0.12864458198585
H         2.94348405733348   -1.46485234852925    1.42534972141070
H         1.22634093230068   -1.54027659443864    0.98635114816126
H         1.76733725474912   -0.49680302372346    2.32084726868563
H         3.34479303921814    0.72428285228804    0.63496884529906
H        -0.64959986950564    2.13030941375854    0.10732561128617
H         3.25380722300206    3.14877852539474   -1.12233476352291
H         3.80722655791603    2.61413242753307   -2.86519653975783
H         3.85722235617893    1.53311025044841   -1.45791217188559
H         1.81962829711213    3.75446062117841   -3.47520797267786
H         0.19646975837071    3.18685743242885   -2.77726299255928
H         1.80702509000591    1.97940728539748   -5.09177138267506
H         0.17244491972881    1.41669778016587   -4.46588239259037
H         2.11107821278173   -0.42737714154308   -5.31379897131146
H         2.52880301381296   -2.28722922008872   -2.31671218798632
H         1.10812556413373   -1.44583057436915   -1.79631218281300
H         5.78022308439337   -1.37330924883485   -0.02011063588017
