32
 energy: -49.285052227262 gnorm: 0.135536355285 xtb: 6.4.1 (79825abcba525fcdf90b791dcacef51065a7a4e7)
C         0.87682160500131   -0.77377609185347    0.19621014140169
C         1.96372015924800    0.30171686486919    0.17134616217286
O         1.42621537810925    1.38683117594511   -0.59936000266969
C         2.19759978075127    2.16654399865277   -1.39739778920956
N         3.17284462372397    2.95280907007431   -1.10483274876610
C         1.88196696073100    2.09045589583995   -2.93444022726484
C         2.94045422155262    2.82044714542492   -3.80659129058372
C         0.42633729257318    2.20578151506650   -3.44711813684324
C         0.46915358917501    0.71296268685936   -3.82082498164892
N         1.82955918140355    0.64145967397435   -3.31056953260249
C         2.47442355504160   -0.41684329658844   -2.64676310610309
N         1.94058357705638   -1.59257037516040   -2.75636048321226
C         3.70630409915593   -0.23250302492428   -1.78082796345000
C         3.22944781252488   -0.37859576104160   -0.37332237434395
N         3.95937919272317   -1.15181026920543    0.37425097242953
O         3.56579068042113   -1.37941855420934    1.68596876106397
H        -0.16228230506169   -0.42869456939330    0.15202916182046
H         1.04436356847039   -1.32088531945682    1.12835654291352
H         0.94190632791377   -1.41383172926876   -0.69051565778550
H         2.09497516581055    0.61965812085437    1.21190144424992
H         3.33262887585551    3.05022854953319   -0.09256153176683
H         3.88276950508327    2.49561121976761   -3.34655634105324
H         2.79971308366875    3.90771792544490   -3.78394093932629
H         2.83986501927805    2.42454627813293   -4.82069172231169
H         0.41477126109552    2.94834618819295   -4.24779563853915
H        -0.33637955845731    2.45954484828707   -2.69934691973154
H         0.36015750790286    0.35836807335555   -4.85498381009678
H        -0.15751438644860    0.04259461896277   -3.23167171324792
H         1.11557070128867   -1.56121275536700   -3.35090087494289
H         4.34122205182283    0.62407886781928   -2.04835685832012
H         4.20588611168986   -1.15085502681266   -2.10383900410534
H         3.92351208003964   -2.26551022162866    1.88741423416810
