32
 energy: -49.288691723560 gnorm: 0.131098460563 xtb: 6.4.1 (79825abcba525fcdf90b791dcacef51065a7a4e7)
C         2.16687575677232   -0.78635096422856    1.38536299005409
C         2.54966188734967    0.07183571473408    0.17886300536618
O         1.36902163730437    0.87531873436737    0.03437729009529
C         1.05023565149183    1.74700879854976   -0.95475478461533
N        -0.12784163051751    2.25673481096327   -1.03974257628414
C         1.95846079863994    1.97963139275799   -2.21528117905404
C         3.41813614118151    2.36264022797703   -1.84571101066735
C         1.18855808467626    3.00224485038481   -3.08505583067424
C         1.18979080895408    1.92773577839876   -4.18751981564555
N         1.69121250176136    0.93248199958249   -3.25252095463793
C         1.90776277281190   -0.45538784740369   -3.31097995731399
N         1.96767200073450   -1.06940360963952   -4.45059673008232
C         2.04667197339705   -1.25764248527197   -2.03096182985561
C         3.02475113140712   -0.77987112494994   -1.00875700728114
N         4.25359334872039   -1.20311024485947   -1.02724718226922
O         4.97448120068009   -0.79218891240844    0.08576017830185
H         2.89885568346254   -1.56338896812065    1.63272403830349
H         1.28718981175703   -1.36998674292098    1.09932514066483
H         1.86458728204601   -0.17492942751086    2.24266997746006
H         3.38699427713597    0.72427546757872    0.45138213333277
H        -0.74499021684004    1.97406614357233   -0.26583002506233
H         3.98471767773493    1.53250419421746   -1.40415903717052
H         3.42992319154875    3.25267805603122   -1.20526383287578
H         4.07348787878786    2.60007664898521   -2.68796596650524
H         1.76263013433600    3.90101472559307   -3.32016119190015
H         0.17804072427916    3.16547886242918   -2.68818815105836
H         1.87036452196696    1.99379737995755   -5.04749496479893
H         0.15501721500262    1.73314534758987   -4.47139627552864
H         1.83098130978176   -0.54657762216428   -5.31261555652840
H         2.39837553918843   -2.25389085850159   -2.33463742025503
H         1.05360547725835   -1.24685566762512   -1.57162393984628
H         5.71795333230326   -1.41365043237908   -0.03564036878382
