32
 energy: -49.287718602696 gnorm: 0.123247906971 xtb: 6.4.1 (79825abcba525fcdf90b791dcacef51065a7a4e7)
C         2.20679413848245   -0.75914648647755    1.38397828643236
C         2.56601468706420    0.19159049045619    0.24130089975588
O         1.36749910977012    0.93895932904877   -0.01437996167665
C         0.96317558072702    1.66362012484146   -1.08733827175579
N        -0.26915345502064    1.93634093239762   -1.33613158453189
C         1.99749694077924    2.10956601065992   -2.18242939365915
C         3.42795584127194    2.46649593883841   -1.69220662842207
C         1.26648390755014    3.06452588600682   -3.15642527804730
C         1.33075234069811    1.94280826856968   -4.20885924726185
N         2.02683633796651    1.07832885247300   -3.26847682032746
C         1.93072428722098   -0.32375672978173   -3.23089067892986
N         1.65505729430083   -0.93395841835400   -4.34039168762663
C         2.04004484028645   -1.17853848705936   -1.98239083849503
C         2.97790686815970   -0.74738407356388   -0.90335066779210
N         4.11961066821693   -1.36869633091599   -0.90650286062613
O         5.05420540010574   -1.10425715813864    0.08542739097830
H         3.09827808549348   -0.96683404791527    1.98638380691945
H         1.89514637301092   -1.74038676429849    1.01473728044603
H         1.34892990413927   -0.38435422638265    1.95300342291256
H         3.41327412320200    0.80054271676662    0.57655969292997
H        -1.01429290391677    1.53022292301791   -0.75342244040781
H         3.96324488528770    2.97024760915199   -2.50756453654731
H         3.83062205775103    1.51876781524136   -1.31517853052963
H         3.36602896638545    3.05752260589420   -0.77454224862930
H         1.88931803328907    3.91757268216791   -3.43393086365622
H         0.20638927708494    3.26572760212360   -2.95391140129664
H         1.89287227954901    2.13373950756340   -5.13334202899868
H         0.44849498586520    1.38240887142532   -4.51995755320680
H         1.53251896848716   -0.32199681517389   -5.14388106407944
H         2.39930575645796   -2.17718539227661   -2.26885381851407
H         0.99190230745092   -1.24543176935948   -1.67545234934501
H         5.83643991214258   -1.57785015852483   -0.25738766297757
