32
 energy: -49.285916548699 gnorm: 0.125316042477 xtb: 6.4.1 (79825abcba525fcdf90b791dcacef51065a7a4e7)
C         1.93534586694219   -0.81335578209867    1.42417264637497
C         2.21175903733349    0.19398447485173    0.30725134843781
O         1.09620873340416    0.91244806047792   -0.24022477071619
C         1.12813285922410    1.95006189962386   -1.11325897180012
N         0.33071410527743    2.95919374021998   -1.08706982066384
C         2.09889805851906    1.88109586757310   -2.34645465769990
C         3.57392749531617    2.23926672672560   -2.01489502055646
C         1.45655641628334    2.71096315218119   -3.48387011431466
C         1.34565682501161    1.40009399573820   -4.28344590066002
N         1.88138196704341    0.64375615952150   -3.16222855369720
C         1.82375232815137   -0.75878489708810   -3.08443645270050
N         1.59676051690509   -1.60280986796726   -4.04121617299723
C         2.00885692214441   -1.38680355261158   -1.71597616074572
C         2.90121989294852   -0.60090953913450   -0.81272316217017
N         4.18525114314395   -0.77637736557643   -0.91272936911699
O         5.02858324744223   -0.22001249312792    0.03941038524399
H         2.80002550085062   -1.38881943265396    1.77337298968014
H         1.06750058159788   -1.39534444123402    1.10101711472521
H         1.56735789762591   -0.24768633184542    2.28718644664372
H         2.95002948351478    0.95475309508555    0.58520405216484
H        -0.30448596951071    3.14160747823475   -0.29779124068116
H         4.17326774496347    1.32224948799083   -1.94433105724985
H         3.54119270842337    2.67959744184173   -1.01114397599981
H         3.97783396357142    3.04023099099429   -2.63985196327517
H         2.04996948918159    3.51851920291220   -3.91784555729630
H         0.50752784707733    3.19311309751780   -3.21522381066457
H         1.97967153974514    1.40256801078307   -5.18073135971234
H         0.32667837019973    1.18664693874662   -4.60799317607662
H         1.46316411274051   -1.23817521212441   -4.98158917643886
H         2.31407049933518   -2.42169086943535   -1.92639956288552
H         0.98784362972094   -1.45204581525532   -1.32795034886922
H         5.93783901125536   -0.50875257960328   -0.16936327571839
