32
 energy: -49.288121563130 gnorm: 0.135859715248 xtb: 6.4.1 (79825abcba525fcdf90b791dcacef51065a7a4e7)
C         1.16748450135864   -0.72636379892537    0.84429119224450
C         2.03349473988744    0.28973669352906    0.09849103392344
O         1.21596941010043    0.82784857520089   -0.95149013350889
C         1.69239480297930    1.99640448605033   -1.44882935519427
N         1.66488208458572    3.18369046404088   -0.95435519846794
C         2.16084839272905    1.97686654053451   -2.94819006483779
C         3.51188442108158    2.71061804374932   -3.17233375031673
C         0.95885482636267    2.42946671575810   -3.81153297526660
C         0.50976208578769    0.96341304246711   -3.94937506807505
N         1.79881391310171    0.59123233718693   -3.38723309697965
C         2.16447566755123   -0.63819643108352   -2.81165459902405
N         1.55832564152903   -1.73997894063079   -3.12468545184480
C         3.40824490303432   -0.59940632529926   -1.94396335054784
C         3.24641438056241   -0.46681162950133   -0.46543822832858
N         4.10821826546658   -1.10504171202187    0.26905673386979
O         4.16790262931442   -0.95741644162977    1.64817441055079
H         0.35725631754567   -0.17299296629668    1.33222681938399
H         1.74666397988072   -1.31391683949787    1.56236381431034
H         0.76028043433983   -1.32463254304216    0.02182584317773
H         2.46603340687832    1.07903460645631    0.72378212492709
H         1.31992092719632    3.25883572653458    0.01263476050847
H         4.27264611778849    2.51733393196826   -2.40487592414082
H         3.16446001692752    3.75068421187444   -3.16620858082929
H         3.93282994880259    2.41331433804933   -4.13652809961666
H         1.33371981900674    2.95464257998113   -4.69260453338177
H         0.25734410543428    3.04247911055073   -3.23067744394570
H         0.35702746066718    0.52655697685941   -4.94583424291982
H        -0.35604138030718    0.74324669683453   -3.32398014541779
H         0.77718335241286   -1.62201209664411   -3.76578479462174
H         4.10027938878446    0.10004121972926   -2.43415359600654
H         3.90135507206192   -1.56938602746278   -2.05916082345861
H         4.82347897946835   -1.64291348959470    1.88058949041871
