32
 energy: -49.294560800331 gnorm: 0.122928040024 xtb: 6.4.1 (79825abcba525fcdf90b791dcacef51065a7a4e7)
C         2.32020662487576   -0.94264291337599    1.33880495258728
C         2.40994167039548    0.04881606823681    0.17793953602916
O         1.18255967976501    0.79092021782232    0.12148283709879
C         0.88472485291436    1.60806656218196   -0.91939015517424
N        -0.22081594450620    2.26261416654057   -0.85414769148868
C         1.87565919347749    1.98423933886629   -2.07889699454806
C         3.32596715601528    2.36010809533421   -1.66748543123020
C         1.32726521093833    2.98492050246228   -3.12431444270975
C         1.44224433858592    1.90879953316447   -4.21918500973231
N         1.86581339503348    0.97584817801228   -3.18653419633875
C         1.95268269321786   -0.41646637673423   -3.36091336282259
N         1.89029706714426   -1.07740333148588   -4.47383799484955
C         2.00019272228459   -1.27302920192643   -2.10975485329230
C         2.90436304056206   -0.71450933030089   -1.06078459289628
N         4.14929398063425   -1.08407226960040   -1.11643189932374
O         5.02525293685041   -0.68254170322935   -0.11703701877311
H         3.30042984235844   -1.10256335350087    1.80179313627638
H         1.97621232557968   -1.93728962662521    1.04107761342281
H         1.70552397335827   -0.64242452363073    2.19450585953954
H         3.20076780082043    0.76880481585671    0.41727209607096
H        -0.80566865251929    1.90860136083875   -0.08451347228679
H         3.18596136973751    3.23248645118050   -1.01597717312274
H         3.89271995898483    2.67512541025540   -2.55181241321835
H         3.78584491070147    1.47573589291287   -1.21842682708174
H         1.98372910464356    3.84386893703742   -3.27885658640007
H         0.32200893289698    3.37663817505820   -2.92106163045404
H         2.14580576887060    2.07042579848986   -5.04742424662169
H         0.50516806694176    1.67852128922270   -4.72718861257147
H         1.94553125093454   -0.37283655355636   -5.20571412227249
H         2.15543097939748   -2.31949398646448   -2.40848150966691
H         1.01343426188141   -1.26602326622849   -1.63694688298907
H         5.90103659414409   -0.95273905891439   -0.45423087625921
