32
 energy: -49.285951939367 gnorm: 0.139171917764 xtb: 6.4.1 (79825abcba525fcdf90b791dcacef51065a7a4e7)
C         2.16450412002097   -0.94952086372747    1.27160330277854
C         2.46019319156062   -0.00115845749354    0.10892168581790
O         1.24865055018071    0.76200673538832    0.00834429570249
C         0.97481639035102    1.78349049922340   -0.84102965926883
N        -0.15706567023974    2.39338100974646   -0.88329288261184
C         1.92900613208471    1.99376968919486   -2.07115875112091
C         3.37907375544679    2.40614566545601   -1.69541956469971
C         1.29115350140444    2.88892456929677   -3.16057978238495
C         1.55386345751908    1.82624964687921   -4.24303236574763
N         1.71579907373784    0.93259727658627   -3.10666139632899
C         1.83240166731606   -0.46761836394220   -3.15455928988061
N         1.84564427859889   -1.05431320579641   -4.30995735260808
C         1.96220626689923   -1.43061657298663   -1.98959580426705
C         2.97975065713231   -0.81194794563061   -1.08867427935956
N         4.23877826183104   -1.11095767696780   -1.21102262924681
O         5.00728002843298   -0.43446625775662   -0.27342707703490
H         3.02773047492405   -1.60373146817920    1.43779268125715
H         1.28993349915775   -1.57354603315313    1.06662878443204
H         1.90904817191597   -0.42454781539990    2.19860678047475
H         3.25541709320496    0.63190024601292    0.51870878799709
H        -0.78059922468470    2.22055457884294   -0.08263595288346
H         3.27291810780377    3.32827141543095   -1.10931060972514
H         3.90141698750934    2.71450999279656   -2.60895546987222
H         3.92460990587553    1.71605231230276   -1.04625330049549
H         1.89420142819120    3.79927563997057   -3.17523134021851
H         0.23224418290854    3.15873165560871   -3.05470332794555
H         2.42286006599588    1.94847805736627   -4.90409747732054
H         0.65294552443009    1.58891449195480   -4.80980090369857
H         1.66087954104736   -0.44963716458522   -5.10703746138105
H         2.35869656641590   -2.37332588781859   -2.39273310535759
H         0.99275548568520   -1.65448109274226   -1.53425134815213
H         5.90010774578338   -0.82777218784266   -0.31669873020818
