32
 energy: -49.289332003032 gnorm: 0.123378332736 xtb: 6.4.1 (79825abcba525fcdf90b791dcacef51065a7a4e7)
C         2.40070415374646   -0.80508449400467    1.40403200011730
C         2.51497232503300    0.01466443461982    0.11810576683836
O         1.22430026586483    0.62114306781857   -0.04536219074456
C         0.88895763263556    1.55589679797399   -0.96928377521416
N        -0.21947990948052    2.20778696407711   -0.93302053754166
C         1.85920074804106    2.04451186890672   -2.10409501626128
C         3.19582275117145    2.63165139468566   -1.57245718302988
C         1.25027144439495    3.05328280560457   -3.10738097147834
C         1.34198500468078    1.99066097789346   -4.21752581634908
N         2.00625538889571    1.11212548408129   -3.26721169631245
C         2.00629340711987   -0.28677869569020   -3.40707337105399
N         1.71221490858354   -0.92088046889657   -4.49829454092315
C         2.12499668111795   -1.18408457533560   -2.18965546383010
C         3.02294973827664   -0.85444790163613   -1.04299642391638
N         4.21234517754088   -1.37548353576415   -0.98480043815007
O         4.94765074922664   -1.14098488861696    0.16917404715979
H         3.43554158477215   -1.10304232001258    1.60677022646303
H         1.95610601022696   -1.78305539532029    1.19860284584772
H         1.95121836983235   -0.27289099844970    2.24956289726196
H         3.25893663015245    0.79947606516412    0.29603172579705
H        -0.82803354961028    1.94699423721423   -0.14475395407091
H         2.90586470695787    3.43941675996811   -0.88795146944571
H         3.78799876464912    2.98658132552355   -2.42441444334720
H         3.79983364189389    1.81544620243069   -1.16719763644267
H         1.92471497844520    3.85663107815917   -3.41131847822963
H         0.28289975448820    3.50571753205530   -2.85284323386755
H         1.95570020087630    2.13868902831600   -5.11671619034856
H         0.45642055720359    1.47920107139958   -4.59619724252138
H         1.64022873030449   -0.37106464191975   -5.35130589049350
H         2.46981851826284   -2.15342218692294   -2.57683446022561
H         1.07481110182345   -1.29413757154360   -1.90279783553558
H         5.70250161578690   -1.69134445938384   -0.11544470893956
