32
 energy: -49.291152714071 gnorm: 0.125483522359 xtb: 6.4.1 (79825abcba525fcdf90b791dcacef51065a7a4e7)
C         2.33323256937876   -0.88541550181636    1.43933515629676
C         2.54202648602238    0.08398831021321    0.27515597725569
O         1.29465023342022    0.76722623825936    0.08122065837051
C         0.93910620489927    1.48916432488365   -1.01067867688968
N        -0.29906336241446    1.72433227625834   -1.26863556653493
C         1.91882444234205    1.98845186756138   -2.13263102399673
C         3.28017795262155    2.42347116165472   -1.52320110987641
C         1.44840330650094    3.07865648459157   -3.12518038187827
C         1.65271213058975    1.97759229219812   -4.18154852386101
N         2.08125508443545    0.97242118274322   -3.22125759213574
C         1.75994587104740   -0.39624513552809   -3.21858857963429
N         1.63406959401954   -1.09831795238949   -4.30052194295370
C         1.77605025220324   -1.17175557628289   -1.91487123422419
C         2.86474263820608   -0.66424306677101   -1.02774836831220
N         4.08210975038827   -0.97623725816519   -1.35971731318536
O         5.01395467007880   -0.55142697003364   -0.42242211566458
H         3.24364863214727   -1.44000354745479    1.69299802963265
H         1.67460107165203   -1.72053661101110    1.18424102537660
H         1.98146046913470   -0.30989822896160    2.30259997529273
H         3.27490813946248    0.76947746010454    0.71567719314155
H        -1.00317873601636    1.39082392315475   -0.59579955263061
H         3.21496394003339    3.16172123922502   -0.71336003257965
H         4.01448531692718    2.73248813528606   -2.27671292808020
H         3.84185356875976    1.63047715400700   -1.02226561420171
H         2.13742014491381    3.92523008295814   -3.15966906691768
H         0.42121285040764    3.41948151617317   -2.94075509181926
H         2.44294172304821    2.22049247731732   -4.90517734281541
H         0.71254050748881    1.65914871681758   -4.63307779853012
H         1.66892989106034   -0.52155128798181   -5.13791838354599
H         1.95244192685475   -2.22141555461715   -2.18968935610429
H         0.81455923420811   -1.22158639730272   -1.39492832932779
H         5.85395050220055   -1.00175259404349   -0.63530038517422
