32
 energy: -49.286368995100 gnorm: 0.127843141156 xtb: 6.4.1 (79825abcba525fcdf90b791dcacef51065a7a4e7)
C         0.63148924017718   -1.11777051164447    0.22786988084868
C         1.60094053230153    0.04729191822777    0.02428813022087
O         1.17127134443205    0.92189210276869   -1.02967174337747
C         2.12651727786147    1.83085879908864   -1.34768920831209
N         2.84277352378243    2.68878427830706   -0.71062526032795
C         2.23501321225504    1.94206553730122   -2.91094693136456
C         3.53566490905497    2.64099452309415   -3.39440678753614
C         0.84608755300522    2.45945897315742   -3.35612774466073
C         0.53168800791779    1.01346311114616   -3.78068279878530
N         1.88044143113053    0.58685281383703   -3.44150061482934
C         2.10456752961870   -0.64394193805582   -2.80009124407342
N         1.45729382735751   -1.76138735027537   -2.90818082585120
C         3.29825517317803   -0.66645836161061   -1.86416522790376
C         2.97125017628497   -0.48959705992937   -0.41793051834868
N         4.09230453984781   -0.58547772136011    0.23289237952878
O         4.20545458136832   -0.03741298450781    1.50338170500618
H        -0.39826039696872   -0.83713305029575    0.47612067528659
H         0.97962189586492   -1.74973026346668    1.04989558428807
H         0.59889805724475   -1.78189421743667   -0.64280078194562
H         1.77387879463560    0.68223220696050    0.90065165293361
H         2.74564219757700    2.71718908573393    0.31381276042945
H         4.31882987231521    2.55919121154064   -2.62950844141584
H         3.36831508523579    3.71262058394423   -3.55593226297660
H         3.85249931158037    2.11639777093976   -4.29976283922846
H         0.94347028581578    3.29906799594665   -4.04764334594247
H         0.20334272421261    2.77161277916238   -2.52262086699527
H         0.40727590047059    0.95156474219247   -4.87054159527604
H        -0.25232960372576    0.46855906805706   -3.25380174728536
H         0.65988455796666   -1.82222508047684   -3.53710453934340
H         3.95497299696472    0.16027276704528   -2.17020839738253
H         3.85852451228005   -1.60499223545487   -1.91457500930376
H         5.14729864469936   -0.19394307991194    1.70864108353788
