32
 energy: -49.288149948853 gnorm: 0.129569147452 xtb: 6.4.1 (79825abcba525fcdf90b791dcacef51065a7a4e7)
C         2.10361196562867   -1.01735218681360    1.28232111391934
C         2.45258990117129    0.09275332822919    0.29008528429796
O         1.30613577445496    0.94152577876689    0.13008302925096
C         0.92496354362658    1.67061841029893   -0.94833338214752
N        -0.29397159773982    2.03187080163835   -1.14481086522353
C         1.97500284485916    1.97469012405158   -2.07654912754184
C         3.42506592014059    2.29907926690872   -1.62265627551887
C         1.47883364933624    2.98864956849605   -3.13517973279244
C         1.45868783780923    1.81589864521014   -4.13229934329396
N         1.96920327956973    0.90205772000605   -3.12212835651576
C         1.81566428697139   -0.49447162311931   -3.17337048679309
N         1.74475482190370   -1.10358495617629   -4.31498498101053
C         1.92808313994953   -1.31889659937947   -1.90489102523964
C         2.89422582321126   -0.67688103322325   -0.96457653264952
N         4.14167509312814   -0.96422642852100   -1.19003023643735
O         5.06159897725496   -0.33804744033455   -0.35999352596169
H         3.05386014813668   -1.51625322761407    1.50344619927661
H         1.55524322415153   -1.79993296962021    0.75019822063214
H         1.50908293101689   -0.72699097111101    2.15548517293997
H         3.29208148913240    0.70273515464481    0.64257056425786
H        -0.89108706693666    1.80385012913139   -0.33785716678936
H         3.36479815428705    2.71254121147800   -0.60750819117823
H         3.80059925641960    3.08022135891781   -2.29442305205223
H         4.02530705346427    1.40206746348281   -1.79682795604830
H         2.29021191563601    3.69756243834710   -3.31330436723963
H         0.49419378566801    3.39738152983668   -2.87304017715177
H         2.15528484814288    2.07363606253291   -4.94188318546930
H         0.52195788631290    1.73954933960290   -4.68539557633527
H         1.71825730749104   -0.52080445340494   -5.14851517406556
H         2.30200870561781   -2.30335419647306   -2.22024478435898
H         0.87788624247157   -1.33913132862066   -1.59835269698051
H         5.89455560314448   -0.56495034214176   -0.81650382827403
