32
 energy: -49.290656966440 gnorm: 0.110980018909 xtb: 6.4.1 (79825abcba525fcdf90b791dcacef51065a7a4e7)
C         2.13201058596577   -0.86719706276749    1.36518800854483
C         2.51197425547724    0.01064307799182    0.17200901278513
O         1.30463620415817    0.75203322601832   -0.05831241112664
C         0.93409564609220    1.76956530984228   -0.87512234421494
N        -0.02235657803429    2.54977690958383   -0.51266048653345
C         1.76578537345478    2.10095319486393   -2.16600855536850
C         3.17827546557787    2.66508594059100   -1.84890295091777
C         1.01263488904198    2.90904305549207   -3.24986809807725
C         1.33772243211876    1.75357906766097   -4.21382824498367
N         1.79156551492090    0.93205032134297   -3.10239058404339
C         2.12120464734179   -0.41875938446925   -3.31010526496633
N         2.52074685143362   -0.89921686329318   -4.44538386706924
C         1.91724250607474   -1.23972432403733   -2.05083137848843
C         2.91864283567831   -0.90136906208858   -0.99607067783058
N         4.09650081292418   -1.43776835961883   -1.11629056021718
O         5.07581387972818   -1.11419915972695   -0.18700593822441
H         2.88188212133700   -1.63350158790669    1.59155103112377
H         1.21224206269986   -1.39056822094421    1.08877485543912
H         1.97281552351852   -0.24297643076521    2.25130054375211
H         3.33834015264146    0.69332386099356    0.40034251371425
H        -0.55530298941598    2.22123436027481    0.30449464057942
H         3.10199847304846    3.67617939663910   -1.42821249177677
H         3.86817421641639    2.82683211252096   -2.68577614442984
H         3.67211217229205    1.96973572974971   -1.16489362396015
H         1.42580355873869    3.87683762384537   -3.54190551335664
H        -0.02650594178402    3.04270090612206   -2.92181849665958
H         2.13987721385173    2.09181974039531   -4.88408411440205
H         0.49837954775807    1.39133493379342   -4.80837881773807
H         2.59404410809105   -0.16088674547775   -5.14151889150795
H         1.96438437591063   -2.31740943515558   -2.26248565530109
H         0.91666297391208   -1.07607502919979   -1.63931196605301
H         5.90341382568871   -1.58842216132426   -0.39651535692932
