32
 energy: -49.294094347216 gnorm: 0.120407171335 xtb: 6.4.1 (79825abcba525fcdf90b791dcacef51065a7a4e7)
C         1.86891450831878   -1.16001520831827    1.28268283183577
C         2.32974544733242   -0.04134326654902    0.34734346036753
O         1.16376604073355    0.75096689920291    0.07695651468548
C         1.01467136625990    1.67368660654551   -0.90600301368907
N         0.05280020078062    2.52623628842180   -0.85240726915981
C         1.98120732476054    1.92481478078116   -2.11870900848914
C         3.40107615383147    2.38078552700229   -1.68282695592308
C         1.37145739466306    2.90607377617878   -3.14843334641713
C         1.33611397517815    1.79407368466203   -4.21248444587104
N         1.84777677232897    0.89034790531065   -3.19382966043454
C         1.92925599646593   -0.51297920963268   -3.21681523690633
N         1.87947209586356   -1.20747130279909   -4.30976224439809
C         2.07415692765814   -1.28468525908524   -1.91880592206006
C         2.97564144338397   -0.70827527726835   -0.87722816733163
N         4.22062337938838   -0.90225689596652   -1.19647342674162
O         5.26502266899135   -0.29845210393048   -0.50947203825275
H         2.67146571244480   -1.82722079496138    1.61662658480079
H         1.25778349241478   -1.82435657427220    0.66505416834693
H         1.26893222753649   -0.79119735981813    2.12183987577799
H         2.99191905921983    0.60864608025717    0.93053278487387
H        -0.55221729967041    2.55254676221601   -0.01995536920773
H         3.25952719670340    3.23780944938225   -1.01157252526956
H         3.93660693650758    2.74571444062816   -2.56742433729583
H         3.94108620850580    1.59621278082137   -1.14608668934266
H         1.99772564019047    3.78472751368327   -3.31688580308528
H         0.38315605202339    3.35381242539345   -2.98084699478456
H         2.09783531901769    1.89615391907333   -4.99763550993942
H         0.34901285937132    1.55158566297414   -4.60750167958701
H         1.67004561221149   -0.70220555191387   -5.16764037460016
H         2.32086364378773   -2.30276235695386   -2.25209244034836
H         1.04085121850756   -1.41086952884961   -1.58169235272885
H         6.07210062758019   -0.48313584076122   -1.02737203632350
