32
 energy: -49.289432683617 gnorm: 0.130100858770 xtb: 6.4.1 (79825abcba525fcdf90b791dcacef51065a7a4e7)
C         2.15153131982910   -0.96048415732256    1.39492810495658
C         2.50853662215994    0.03007326826279    0.28587670432931
O         1.30841307435515    0.77530698324540    0.03150952553127
C         1.04677993321777    1.62547461929325   -0.99250874002454
N         0.02110752608791    2.40194410995686   -0.99343338948752
C         1.97582144962487    2.05034536294321   -2.18594062926710
C         3.40020084667357    2.49517765085699   -1.75327731313265
C         1.23946188536565    2.92777976967150   -3.22655576221853
C         1.13944437876925    1.74199058231775   -4.20323309001897
N         1.89030319073090    0.97286084417379   -3.22301516573171
C         1.93479944246395   -0.43007778479499   -3.30224576081682
N         1.81416148634621   -1.11167399113200   -4.39778396496294
C         2.01358427579118   -1.18912766501334   -1.99114282112221
C         2.98928780841271   -0.74135948742798   -0.95320578762658
N         4.23127161837400   -1.06672765353736   -1.15603133175949
O         4.97570448137943   -0.83207590586678   -0.00795498822047
H         3.05550247882439   -1.36535572392070    1.86363411004323
H         1.54595149198840   -1.81514194781909    1.08008073736603
H         1.51068101764009   -0.48679985262050    2.14667537490331
H         3.25485058341177    0.71700164701723    0.70086430128549
H        -0.58768776923836    2.29589723107988   -0.17012485906856
H         3.83415811176185    1.86442011276531   -0.96655332408513
H         3.38739702500873    3.49194695179154   -1.29636826452352
H         4.04888832231181    2.58406127731931   -2.62881122302447
H         1.85034146862167    3.70882584712780   -3.68417317131044
H         0.31724960380074    3.41151316320049   -2.87896240933547
H         1.71280151906609    1.87715165653144   -5.13064618491501
H         0.19033150269260    1.29664386908597   -4.50333094961274
H         1.84123067812201   -0.52250255932890   -5.22679066250146
H         2.22331398482371   -2.19813587859552   -2.37368819812370
H         1.00757193448144   -1.29115946148537   -1.57303112449592
H         5.89431243310669   -0.89359513134373   -0.33365137958382
