32
 energy: -49.288784313517 gnorm: 0.125271568098 xtb: 6.4.1 (79825abcba525fcdf90b791dcacef51065a7a4e7)
C         2.03345320152935   -0.98671258385260    1.24182913762622
C         2.43133068481841    0.05810236639727    0.19841788418877
O         1.22459988228558    0.79443406840188   -0.05055778517815
C         0.94982668841046    1.75551232481432   -0.96744306874101
N        -0.17841814818961    2.36621599072241   -1.06238643249594
C         1.97280798807755    2.05319907836307   -2.12191475041230
C         3.45226906839173    2.25845105875055   -1.69413379441570
C         1.45282179195874    3.05771301797424   -3.17811668275299
C         0.99526573701565    1.84689446519244   -4.01151874289366
N         1.74725112317124    0.96791116841222   -3.12942859114784
C         1.91134206289476   -0.41186956818170   -3.34337601139827
N         1.86740257526583   -1.01113061612408   -4.49154254598178
C         2.24475497467325   -1.26458936862208   -2.13380606125715
C         3.02662624169467   -0.72763248408885   -0.98047972509789
N         4.26749670971701   -1.11180192440794   -0.93378113430184
O         5.09127470628917   -0.62750076224573    0.07327557401178
H         2.95913471236180   -1.27838253757938    1.75056535899451
H         1.44041422228178   -1.69915037009541    0.66128378474325
H         1.36089064325662   -0.60934373345997    2.01993083081560
H         3.22182038366101    0.73744642452348    0.53707335061162
H        -0.73951622894850    1.99845210850245   -0.28159627752827
H         3.91386724632452    1.28866085665818   -1.92116400621115
H         3.63884646422804    2.52401722230365   -0.64668816492361
H         3.91327887441029    2.98148782902876   -2.37232488993978
H         2.24668273137736    3.69507541916035   -3.57330589986961
H         0.64291986486437    3.63685885514747   -2.71557630322235
H         1.38416475970246    1.88359968101965   -5.03841321303449
H        -0.05841730164569    1.56596041708922   -4.01750135423749
H         1.59873316584082   -0.35536950151293   -5.22154386926258
H         2.88605439545023   -2.07717062710843   -2.50376800816609
H         1.30716974104656   -1.74010326997118   -1.83031113242284
H         5.91679980666945   -1.09190563596619   -0.16450530304720
