32
 energy: -49.283992971775 gnorm: 0.130853930992 xtb: 6.4.1 (79825abcba525fcdf90b791dcacef51065a7a4e7)
C         1.92244770067505   -1.06229104490849    1.20241378446400
C         2.35217541446585    0.01514261534331    0.20585841348430
O         1.17713900118376    0.81311350833410   -0.00127524160870
C         0.98087812260362    1.80744243861486   -0.90274179584558
N        -0.11992818621963    2.46286445984642   -0.78630717075696
C         1.97615724040193    1.98066138973594   -2.10579107796032
C         3.43768111306630    2.31659790680879   -1.69955890293943
C         1.36504957548048    2.87315952212271   -3.21258414084413
C         1.60194118831755    1.72972492403797   -4.21579786957627
N         1.96063318097377    0.86348300520353   -3.10352916159058
C         1.79850881724889   -0.52897655239179   -3.20967180865161
N         1.78600959695040   -1.09481268410625   -4.37543512247749
C         1.90395753986640   -1.30868834104422   -1.91264259277969
C         2.93583526964116   -0.68753708512527   -1.02991585279501
N         4.21018565051190   -0.88505771970620   -1.19283648127542
O         5.14680710929775   -0.36060857755959   -0.31248748636579
H         2.72040172832688   -1.77167619210008    1.44901516865860
H         1.06055815375487   -1.69733072520669    0.97843444771687
H         1.67554148367116   -0.67959358469862    2.19879215671827
H         3.13874917830575    0.48387589665785    0.80807154426164
H        -0.57930413431282    2.18076875619205    0.09068218958272
H         3.96293706855621    2.95483075739314   -2.42196711109510
H         3.93429153288766    1.39184996201174   -1.38222913292856
H         3.35218918809108    2.98249162093334   -0.83669619074450
H         1.88807194852170    3.79852709007135   -3.46310956361105
H         0.29195137470148    3.06468143773978   -3.08191574352761
H         2.48950919156503    2.03136718981114   -4.78880481320244
H         0.80539220950510    1.38945116255742   -4.87831667101590
H         1.78124913076680   -0.40048266176919   -5.11906875460057
H         2.33195060737400   -2.24614035961224   -2.29530529296221
H         0.91428171476498   -1.34816780271944   -1.44759222425234
H         5.95460219022280   -0.77742880479980   -0.66946273576628
