32
 energy: -49.290831780842 gnorm: 0.128801514170 xtb: 6.4.1 (79825abcba525fcdf90b791dcacef51065a7a4e7)
C         2.35379243854134   -0.53575214436119    1.57068122176732
C         2.53454120839234    0.12640860244877    0.20410709620073
O         1.22101467737684    0.66945930763939    0.00381609370638
C         0.97012436056615    1.53828985133866   -1.00714279150291
N        -0.20796848684112    2.05408325593387   -1.03819151554319
C         1.93086127268097    2.00530791726787   -2.15900722510532
C         3.34383247671257    2.45379210600840   -1.69392197700333
C         1.32046983093456    3.02446845482352   -3.15083910821416
C         1.37564485354641    1.95805311831802   -4.25976297755997
N         1.89063061331995    1.01336321520326   -3.28071888992100
C         1.88699922397889   -0.39249279242422   -3.28778202909530
N         2.07729847329571   -1.08674154003916   -4.36534211235605
C         1.81991514026839   -1.18312071309643   -1.99481571303303
C         2.83401150432570   -0.83754707647455   -0.95462609932708
N         4.01666130065584   -1.36281278159091   -1.07694464238559
O         5.07111592115684   -0.96567623659643   -0.26593969144948
H         3.07605748067469   -1.33861930014251    1.75644370626365
H         1.38192361609829   -1.03091896982721    1.48958533444649
H         2.24903523334764    0.21605397326179    2.36062006654960
H         3.32355544051614    0.87049918340956    0.36176363198900
H        -0.74642589812811    1.67954144821848   -0.24478327023850
H         4.07908062407088    1.64195212777308   -1.62020205803219
H         3.14919533064139    3.01857142426324   -0.77434622460536
H         3.83342630246453    3.13420593799605   -2.39576973156042
H         1.87717621450488    3.95449939296521   -3.28403441219766
H         0.33424528798595    3.33584880823505   -2.78246693796345
H         2.06021592253983    2.27717597030789   -5.05765082921179
H         0.47545770506567    1.47975974685621   -4.64719842223464
H         2.10730716496557   -0.58260708734674   -5.24854975929445
H         1.92926025140747   -2.25334489871657   -2.22084429204212
H         0.80966905162246   -1.06330634911723   -1.59190620766902
H         5.83458789829770   -1.50550159347958   -0.54772408841336
