32
 energy: -49.284377944740 gnorm: 0.126472122464 xtb: 6.4.1 (79825abcba525fcdf90b791dcacef51065a7a4e7)
C         2.24120464450530   -0.84236244140321    1.54977832289253
C         2.47516648928457   -0.06727145696736    0.25241653101643
O         1.25864167248511    0.65809313900869    0.01942283948426
C         0.94026238065421    1.56996744326001   -0.93292699431944
N        -0.24649107920475    2.06637592112115   -0.92270669997737
C         1.93739000628142    2.01724309259971   -2.06146319261478
C         3.37867696158936    2.43149430682784   -1.65523931583328
C         1.30800785524413    3.05188293385961   -3.02499570965839
C         1.53079787823573    2.06304959433291   -4.18368951479119
N         1.89550887198942    1.05052973222865   -3.20493208857056
C         2.03313081010546   -0.33867585462924   -3.37125179410572
N         2.00573808832473   -1.00217600304167   -4.48406267813408
C         1.93104194185813   -1.23170359630233   -2.14919041173692
C         2.83961328175779   -0.81445533145327   -1.04004252857789
N         4.07604851899074   -1.15727066150598   -1.24796557622080
O         4.94444429362677   -0.85433309880413   -0.20804315963032
H         3.08377779419605   -1.42263621070380    1.94236334127968
H         1.34819992297670   -1.47077672461050    1.48705841801269
H         2.07672028366207   -0.03598630952245    2.27289125917849
H         3.33082801590343    0.59227238521065    0.43657708534338
H        -0.80026727593064    1.64385784474773   -0.16473243375903
H         3.61229222651082    3.04444268254290   -2.53548179969206
H         3.89068077296080    1.46206616622237   -1.63200043879152
H         3.32842538575709    2.92969647170009   -0.68337268083514
H         1.74545882459494    4.05191570353509   -3.05951585953600
H         0.23563067481610    3.26167381871802   -2.91874320637052
H         2.29879539891543    2.34712230933742   -4.91620877757711
H         0.59184388181118    1.92448629155868   -4.72069349304499
H         2.09782316443895   -0.37879754206759   -5.28282888662369
H         2.07777425352617   -2.21706609024902   -2.61390050844094
H         0.85299984722203   -1.21391935980707   -1.96264904791298
H         5.78343010865232   -1.31791756380887   -0.39484671716403
