32
 energy: -49.284028203959 gnorm: 0.117765706708 xtb: 6.4.1 (79825abcba525fcdf90b791dcacef51065a7a4e7)
C         2.49459237725557   -0.66118298031573    1.40396543034222
C         2.58805751857191    0.21002976433219    0.15060816484792
O         1.38707887588680    0.99606203520764    0.16387671076680
C         0.97700390668902    1.57753293785808   -0.99093081878435
N        -0.27441146600677    1.75830921754599   -1.22797321970085
C         1.96538331401304    1.97351152259722   -2.14601525580313
C         3.31918112269559    2.57267447357520   -1.67467118809211
C         1.28713702325446    2.97148893436342   -3.11504541996069
C         1.52479905820330    1.95541989831204   -4.24691050529971
N         2.06323143190077    1.00590587200262   -3.28530227590086
C         1.76526989811643   -0.36802969956582   -3.28153505138342
N         1.68256011708093   -1.04330603791234   -4.38448194121587
C         1.83666134555597   -1.19825752308491   -2.01386801096046
C         2.86330012049766   -0.72239697927974   -1.03950842937420
N         3.96811466182927   -1.40710822893166   -1.04855134573910
O         4.87375729107047   -1.05260464483093   -0.05786488769717
H         3.54096009195397   -0.91396462947131    1.60887079513310
H         1.99587405722549   -1.59889695572776    1.14268345220977
H         2.08297072639272   -0.17115250853781    2.29313787737516
H         3.47382628735295    0.84691537241241    0.25482068211406
H        -0.92612491623900    1.56383347617444   -0.45520976997380
H         3.22456310972857    2.79728777919385   -0.60429512575571
H         3.50883796323344    3.57935149467539   -2.06596457303861
H         4.25050538981956    2.00184451759864   -1.71987769101036
H         1.56836439890187    4.02574273276841   -3.06943158062935
H         0.20964767257939    2.90714380666303   -2.91461828334858
H         2.23592396284911    2.18117342826644   -5.05340829687861
H         0.62756886402904    1.66045414975654   -4.79205347634517
H         1.79526445586289   -0.41621147614175   -5.17767672760583
H         2.13992855320655   -2.22045950162037   -2.28136979739374
H         0.90417638543338   -1.25418864761409   -1.44410295261928
H         5.69290937614428   -1.50945635494509   -0.32985698300258
