32
 energy: -49.285071947663 gnorm: 0.125529234098 xtb: 6.4.1 (79825abcba525fcdf90b791dcacef51065a7a4e7)
C         0.98151738004557   -0.74534976043902    0.85376421225074
C         1.95109700779457    0.19373645572682    0.13495671910848
O         1.23164143536344    0.92733865505673   -0.86733264499343
C         1.77796385960099    2.06312909863405   -1.36869299392153
N         1.88447455167292    3.18962900465918   -0.75667745718407
C         2.09241560923063    1.97758268782599   -2.90548018133160
C         3.52869621297510    2.50899545990175   -3.16745056181238
C         0.87216172995102    2.37604724691612   -3.76988914506068
C         0.55830391925937    0.90152060347467   -4.08175859663011
N         1.88173647067235    0.63667144699423   -3.53902671452022
C         2.14487939397085   -0.57882883559542   -2.88342846093877
N         1.61593229802722   -1.74520277431629   -3.08121028639924
C         3.35779392002443   -0.50197799039847   -1.97552594613872
C         3.13559039624104   -0.55171468779246   -0.49973502157290
N         4.21297543213827   -0.91816849166978    0.12834101766537
O         4.09553174624251   -0.90481282697794    1.51157983356802
H         0.16362574042299   -0.14111126716728    1.26207691972841
H         1.54773061773045   -1.24459501741385    1.64525171806201
H         0.55843144288759   -1.46823622896576    0.14763155732927
H         2.40652081263423    0.83711789718705    0.89634972287624
H         1.71673864519259    3.06241353820546    0.25099087882950
H         4.33834619983821    1.92623005685834   -2.70923663957818
H         3.49188983322469    3.53803391030248   -2.79035108029278
H         3.62655155333055    2.53064927977519   -4.25612444207230
H         1.16066797726187    2.87022585559135   -4.70003546684097
H         0.20627156997277    2.99784447526607   -3.15731006499395
H         0.47837340913832    0.56130534950582   -5.12337592984285
H        -0.20097691575658    0.44325313743752   -3.44717903704787
H         0.80127223784686   -1.80951817672110   -3.68726335777462
H         3.96104627608133    0.40663602316202   -2.11312043807926
H         3.94610414657907   -1.38823342920706   -2.23190669706135
H         4.97231128056396   -0.92749078225572    1.94105239395073
