32
 energy: -49.289066238356 gnorm: 0.130619075831 xtb: 6.4.1 (79825abcba525fcdf90b791dcacef51065a7a4e7)
C         2.45510973934498   -0.80226407218815    1.48339321583476
C         2.44533465501021    0.02672473435901    0.19835088085345
O         1.19754225361136    0.69051979509601   -0.05217399153486
C         0.89637411371996    1.72203934299626   -0.87989102019925
N        -0.13055940231253    2.47919228613170   -0.71546305411813
C         1.80592598862561    1.97630294821838   -2.13527077383136
C         3.27714111952230    2.43179764189982   -1.93037910033292
C         1.09156577273601    2.89129780923570   -3.15873073359639
C         1.43656840377174    1.88139966453661   -4.26826983787958
N         1.82730209700489    0.94738583694637   -3.22370197582711
C         1.97859420748171   -0.44927745905543   -3.27789165793790
N         2.20767083665743   -0.99202610359311   -4.43213542431977
C         1.88934379158728   -1.31441478271641   -2.03494095266460
C         2.85471382972306   -0.85293983542575   -0.99335150163142
N         4.08747485577024   -1.25894137337684   -1.06398747639421
O         4.98823571894921   -0.78772728337304   -0.11852030800942
H         3.50292937188445   -1.01024957253806    1.72749608259133
H         1.91507779031010   -1.74510126163205    1.35801674725633
H         1.91850931909288   -0.23851849852759    2.25439308914160
H         3.18831214621872    0.82000551909355    0.33892072223342
H        -0.70992949631084    2.14818496083583    0.06842407293081
H         3.25829145584312    3.28748977864846   -1.24296053904136
H         3.68115709440018    2.89013983311215   -2.84096813213815
H         4.00166036867006    1.65729403954928   -1.66491462347821
H         1.53888537783331    3.88640164848432   -3.20662702788916
H         0.02548730533998    2.83301846490846   -2.90304566934267
H         2.23987953288158    2.29759681027853   -4.89162618203019
H         0.63187819378402    1.67047540664282   -4.97338847085824
H         2.43532933947335   -0.35234070926386   -5.18981742964058
H         2.01347350999484   -2.36969179979813   -2.31673397752876
H         0.88264297352065   -1.23573941266225   -1.61345268160261
H         5.64098951023421   -1.51215307918099   -0.06538766753040
