32
 energy: -49.281389673572 gnorm: 0.127160361160 xtb: 6.4.1 (79825abcba525fcdf90b791dcacef51065a7a4e7)
C         0.87203756885230   -0.81630753175849    0.35637460059957
C         1.95677747931205    0.23192329782580    0.10497202471694
O         1.26321036561954    1.09434507149458   -0.80912086944878
C         1.90472334426761    2.13100302978688   -1.40380707700455
N         2.50570365695274    3.02851200552925   -0.70508691146658
C         2.05173815151778    1.99520373624062   -2.96196564211493
C         3.33448165192704    2.59755316592466   -3.59889125539379
C         0.76341898265350    2.38250263666876   -3.72696868333196
C         0.62576110337798    0.92328104578684   -4.19784101203258
N         1.79646803567686    0.58652287326946   -3.40272097554389
C         2.20020388997023   -0.44414360866724   -2.53599254771974
N         1.56586465682454   -1.54778476455021   -2.29325648306912
C         3.56137410669964   -0.26763950652216   -1.88991465251374
C         3.25082107427979   -0.39688028787013   -0.43503985896483
N         4.11633157594445   -1.11653440727165    0.21497240403904
O         3.89559649186978   -1.32925509966802    1.56898382999986
H         0.27466763927932   -0.59350487669334    1.24759752554488
H         1.38003168683296   -1.74850836436141    0.61950824694027
H         0.15257301743063   -0.93437164758688   -0.46131819507639
H         2.20168435189428    0.69013861756142    1.06992237205560
H         2.32331706464139    2.95101196605007    0.30508310072488
H         3.10233574674888    3.55108634214995   -4.09081744458098
H         3.63440644940176    1.90533783782424   -4.39473163532746
H         4.10840090423343    2.73037246688808   -2.83819198112988
H         0.75253026059702    3.18640930561166   -4.46604650185627
H        -0.05232494552714    2.57114933860793   -3.01684975779545
H         0.94546047450236    0.75827661786834   -5.23594882045379
H        -0.33432725386145    0.43872378463124   -4.01716930935478
H         0.65730028550777   -1.59049064091620   -2.74910164306677
H         4.02118579758319    0.71009460819363   -2.09248386939123
H         4.21808962429940   -1.08630060620544   -2.19944243120446
H         4.73691125017131   -1.65402024533883    1.94371093020301
