32
 energy: -49.284689255269 gnorm: 0.122685615997 xtb: 6.4.1 (79825abcba525fcdf90b791dcacef51065a7a4e7)
C         0.79855282970738   -1.16506085861316    0.07033025189833
C         1.86610917838668   -0.07011765861084    0.06169202160865
O         1.32351754197986    0.95415963976831   -0.78496188238351
C         2.18174146942608    1.89900256134091   -1.24384519199354
N         3.01897802055842    2.59854697863113   -0.56224254936090
C         2.06383202794857    1.92793966942318   -2.81010602070302
C         3.41996728295105    2.36553862044706   -3.42924601478810
C         0.72009329250908    2.44524248308262   -3.37734529743981
C         0.45423737311743    1.05338570339925   -3.97905405660655
N         1.70062843315243    0.59377995091384   -3.38622309465938
C         1.98720296036450   -0.60716853254558   -2.71384523783534
N         1.44449427791820   -1.76407671281495   -2.92916267892202
C         3.29484506129693   -0.59528431719166   -1.94489428414529
C         3.28074913421632   -0.34245545831175   -0.47326734390909
N         4.33618505424170   -0.24368065206322    0.27894603090210
O         3.92348920009733    0.10016370567591    1.55909219676470
H        -0.17630444806947   -0.76718407310940    0.37383891337703
H         1.10789925605650   -1.96601682995962    0.74787733408130
H         0.65440531216560   -1.61030415850527   -0.92020989357877
H         1.80189608857160    0.29633850754237    1.09254428290801
H         2.84531298004453    2.36469686964676    0.42511208342717
H         4.24262253168198    1.74156613902647   -3.05641186223929
H         3.61033341539965    3.41401184209719   -3.17051159284606
H         3.31728214607735    2.35980128300399   -4.51767525877092
H         0.91605097315544    3.26409484151493   -4.07283212995388
H        -0.01411763413357    2.83173439201988   -2.65842044771629
H         0.44373545244144    1.05562331066723   -5.07768350706512
H        -0.45912541217993    0.58442982820018   -3.61155375103235
H         0.65972251490284   -1.69418973279356   -3.57286828569749
H         4.06830817821748   -0.04778578112388   -2.50205244856873
H         3.62476258886002   -1.63791124302724   -1.98193796611058
H         4.68333367714565    0.00112445000427    2.16451016682553
