32
 energy: -49.285984486865 gnorm: 0.132086443241 xtb: 6.4.1 (79825abcba525fcdf90b791dcacef51065a7a4e7)
C         2.27385722985849   -0.66445358800694    1.48420851116266
C         2.47233524391284    0.08825948209331    0.16789497498702
O         1.14367622386844    0.56584783100049   -0.09084635916248
C         0.91006205200752    1.63071042596473   -0.89790422553557
N        -0.12534671575132    2.39069928550168   -0.82541134011610
C         1.86028030002839    1.95918866374726   -2.10500831523423
C         3.37476816572429    2.21175341179771   -1.86737933265645
C         1.29389369929818    3.00189886843462   -3.09846593456446
C         1.22248400397066    1.87510639224173   -4.14500187275164
N         1.58418842180512    0.90014387728457   -3.12775328788602
C         1.98184230926951   -0.43969478485672   -3.28006199374327
N         2.21955033891637   -1.01049127611552   -4.41892858580842
C         1.96031795182708   -1.26838793901531   -2.00956640144667
C         2.95231709430724   -0.77891482576893   -1.00649072987578
N         4.19550527591981   -1.15063936819842   -1.08284808473196
O         5.08147890431387   -0.66609598602652   -0.13017318847921
H         3.23853966889619   -1.09205881149105    1.77969409039668
H         1.65934552470537   -1.55308364952577    1.31389200346440
H         1.67392109409304   -0.06859852034915    2.18078819777652
H         3.13694679034584    0.93670523557256    0.36664389813848
H        -0.90099397456420    2.04213382689637   -0.24524926401999
H         3.51487242319521    3.27371002599639   -1.62711371528535
H         3.76551537936861    1.97263249114135   -2.86368082653249
H         3.80394053788736    1.44379734311869   -1.21829542511164
H         2.06269146239605    3.71746862003488   -3.39768235030859
H         0.37946704510792    3.56872334084293   -2.87976858146260
H         1.96279197416840    1.95669231939430   -4.95270838828499
H         0.25876572274808    1.77659650365201   -4.64575185165128
H         2.09944011377815   -0.41198009511178   -5.23284855572731
H         2.39486852413986   -2.25160347432324   -2.23951879618886
H         0.97869432213831   -1.27378183065495   -1.52616732470815
H         5.87651133061651   -1.15234024488696   -0.42205207770312
