32
 energy: -49.292172822735 gnorm: 0.123332563704 xtb: 6.4.1 (79825abcba525fcdf90b791dcacef51065a7a4e7)
C         2.20372224187471   -0.88583784223869    1.40527402959768
C         2.45065965767862    0.13885811237458    0.29727045843361
O         1.26873594262937    0.92069948660517    0.06890043252582
C         0.97745359473500    1.58809790461142   -1.07547024844302
N        -0.24053278291744    1.91345238102982   -1.33152344347541
C         2.07116847475471    1.90482380864742   -2.15777584092355
C         3.50260820531913    2.27607567843068   -1.68124429207218
C         1.46841153033225    2.99903143280692   -3.07122542271169
C         1.45213299778564    1.88638582540193   -4.13506416210796
N         2.11468269361277    0.91366910600623   -3.28006312076880
C         1.82837998611176   -0.46087753349113   -3.20832386799565
N         1.45075914386927   -1.08423333686988   -4.27984657938356
C         1.87584014439131   -1.21084260855332   -1.89050194759762
C         2.88537952163067   -0.69187941048754   -0.92028833635515
N         4.13233072787947   -0.97029864839348   -1.15929008591070
O         5.10939126448079   -0.52782918752207   -0.27787389891034
H         3.14868075246366   -1.33541245627349    1.73039898848193
H         1.65289559794862   -1.75529447650052    1.03523227422503
H         1.61057841907415   -0.39292885030144    2.18335565684280
H         3.19343613612328    0.79727943360789    0.76185015367657
H        -0.80281497067386    1.62045682965274   -0.52053211386861
H         3.79573165058346    1.86965102481631   -0.70451185218676
H         3.66625270880630    3.35328941208603   -1.55751111176409
H         4.22095607386615    1.94842856326493   -2.43747115774970
H         2.04147622084893    3.90199972084243   -3.29228120911998
H         0.48096873583655    3.27529312158304   -2.67888521769369
H         1.98027846667606    2.05075715732855   -5.08435147581017
H         0.44836123994137    1.55840912833669   -4.40724281909353
H         1.24665551246085   -0.49593327402568   -5.08442880897420
H         2.05530248647782   -2.26239506368442   -2.15593703177517
H         0.85676168693175   -1.20968038980897   -1.49204686285114
H         5.91502628316677   -0.54569375723019   -0.82954082413212
