32
 energy: -49.289859312895 gnorm: 0.118135359527 xtb: 6.4.1 (79825abcba525fcdf90b791dcacef51065a7a4e7)
C         2.29211884626831   -0.65838721456873    1.54051079322722
C         2.51497453311396    0.05845728726683    0.20817408291674
O         1.25989153230149    0.74450921724862    0.08787486776773
C         0.90115608133339    1.52007305719409   -0.96552910353375
N        -0.32349625623682    1.91239558390114   -1.00044734601322
C         1.90467538246575    1.98058954043948   -2.08302027271365
C         3.31286159034288    2.39052376739975   -1.57028688828280
C         1.33856221913284    2.99236894268338   -3.10811281186158
C         1.65365756808389    1.97321458909564   -4.21808462469118
N         2.08753035956664    1.01483786428228   -3.21337314928744
C         1.92830710642429   -0.37822454297440   -3.31593682831825
N         1.83108254556469   -1.03091509795746   -4.43122750894008
C         1.74475354461512   -1.11824198678295   -2.00443502350981
C         2.82829634788393   -0.79958739617580   -1.02760275609907
N         3.99884291359806   -1.32192881000394   -1.24325669430967
O         5.04767780545895   -0.84307781121196   -0.46997271755883
H         3.21008588987613   -0.96916292233860    2.05190606579289
H         1.55759601381611   -1.46446184590028    1.45675144107825
H         1.82317845662325   -0.02896860628669    2.30478627643011
H         3.35897452752529    0.74698407964480    0.32927199105031
H        -0.66317850295620    1.54149972592422   -0.10224534853220
H         3.32098711855034    2.44155087258861   -0.47372916970641
H         3.54230171812663    3.38304939976962   -1.97615504194727
H         4.11046560415968    1.73542751791477   -1.93074785478729
H         1.95359422331632    3.89401621555060   -3.07085208605156
H         0.28730539558587    3.30858762955785   -3.09548535804439
H         2.48272382507727    2.17267332467974   -4.91088137112860
H         0.81811178219562    1.63944098594896   -4.83425513288769
H         2.03814954957540   -0.42951938491464   -5.22530198701032
H         1.67996694575360   -2.19642251549575   -2.20877427465394
H         0.81286783485976   -0.85925638345249   -1.49276696694521
H         5.87086417004582   -1.12946861267251   -0.91048133329280
