32
 energy: -49.290843620408 gnorm: 0.128622951906 xtb: 6.4.1 (79825abcba525fcdf90b791dcacef51065a7a4e7)
C         1.91210931154272   -0.93075798160364    1.33515328423467
C         2.49911863491733   -0.01437390760515    0.26076410768779
O         1.32243619525690    0.79110575589782    0.09646734805427
C         1.00076161350450    1.62131071592719   -0.92682903341410
N        -0.08531725749937    2.30775964264233   -0.86256283783582
C         1.89651475122890    1.95882598800244   -2.17247050278044
C         3.25022411954204    2.51706574492316   -1.65307729624063
C         1.23653545393509    2.91332539091979   -3.19636238890491
C         1.60203882221154    1.85689499676931   -4.25483308244993
N         2.12840050291827    0.94528895913181   -3.25079398842631
C         1.96706642072476   -0.45071589647875   -3.21034686203730
N         1.92387393783517   -1.11641836086737   -4.32133989369064
C         1.83466485511511   -1.21175491012080   -1.90472664815919
C         2.93559884834114   -0.81032371402597   -0.97919740885975
N         4.16921105408569   -1.13509149639725   -1.22870341282133
O         5.11612281108733   -0.66509172101583   -0.32882600273892
H         2.67801755567576   -1.63398900575528    1.68101576016005
H         1.10752001338037   -1.42840680838710    0.78626582405080
H         1.50120155450049   -0.34554250402233    2.16513373618324
H         3.27906205839284    0.66150771137820    0.62946741407234
H        -0.65791384514046    2.18013174644238   -0.01665572220629
H         3.83064627945900    2.81542532192356   -2.53580052769147
H         3.88065858949312    1.64602507490670   -1.43785789854499
H         3.18205414028420    3.28762213353994   -0.88051592710306
H         1.57300969769763    3.94371265617487   -3.32943263356682
H         0.15558293793752    2.91049942095847   -3.00445538250456
H         2.35773601701535    2.16326292529416   -4.99114987262563
H         0.80673548268673    1.46243063059523   -4.88815616984523
H         2.12889790120879   -0.52851882428277   -5.12598088988089
H         1.90793206553505   -2.30185567347407   -2.02612403052008
H         0.90900204338457   -0.96882816800042   -1.37423284543060
H         5.99622925204825   -0.93630115454793   -0.65372816969153
