32
 energy: -49.286346386502 gnorm: 0.133653117937 xtb: 6.4.1 (79825abcba525fcdf90b791dcacef51065a7a4e7)
C         1.92566260682434   -1.27472893067776    1.09635028719693
C         2.43686740486499   -0.08965629952211    0.27603063228427
O         1.24060582636132    0.68244709922343    0.09385742968679
C         1.08102080947666    1.62557949377328   -0.86785158302006
N         0.05643096801511    2.39110943808609   -0.72968803908240
C         1.95413239167026    1.93805520852790   -2.13590048872610
C         3.35799819820860    2.40122678377022   -1.65781799138919
C         1.26027982803997    2.84559082272172   -3.17990438009192
C         1.62419821430335    1.82764802599115   -4.27596732224772
N         2.00957832367796    0.90509917871008   -3.21929212227171
C         1.84472190829144   -0.48908078879216   -3.29398340219410
N         1.65742960153153   -1.20697728099289   -4.35646967737578
C         1.93170037977421   -1.16724829256044   -1.93977577656833
C         3.00359542605097   -0.65035519275637   -1.03773942474977
N         4.28056424524049   -0.79205393317502   -1.23471289879530
O         5.03840336628928   -0.21778435397482   -0.22317182588065
H         2.55035509479862   -2.16744307867693    0.97977023219389
H         0.85615357586362   -1.48331311656361    1.00180503695015
H         2.04177062904431   -1.18637434525314    2.18212295432148
H         3.20643961278043    0.50679812827648    0.77909183657187
H        -0.47682664043186    2.18803906058617    0.12711609990999
H         3.24763113924025    3.42435618237450   -1.27554326271281
H         3.95005009429534    2.45113789090678   -2.57948078084501
H         3.90769648633117    1.98648413012305   -0.80865623972106
H         1.74931001374443    3.81752182634758   -3.27381995610466
H         0.20319675173772    2.98910073903428   -2.92053031926331
H         2.42383736245526    2.08411099488231   -4.98442053093973
H         0.70537773502560    1.56963049813530   -4.80360692859652
H         1.42837075042830   -0.65775092264377   -5.18169102336686
H         2.17463362660865   -2.21799625248913   -2.15270124836111
H         0.93258714334619   -1.00334551029829   -1.52480909622958
H         5.97936381231884   -0.31486422381802   -0.46580789341480
