32
 energy: -49.286352796275 gnorm: 0.125476909331 xtb: 6.4.1 (79825abcba525fcdf90b791dcacef51065a7a4e7)
C         1.78069911369840   -0.62862431584556    1.52667293767054
C         2.33183074411980    0.33473397358008    0.47460519716549
O         1.27957944277366    1.20734142458022    0.03677429292686
C         1.02328790356403    1.75050691601483   -1.17942313296668
N        -0.13808199536948    2.20735801595006   -1.49153947620103
C         2.07136026711890    1.84803330011304   -2.34559028564721
C         3.48408907785598    2.35460275863076   -1.94370142461609
C         1.68071211884917    2.72620406030707   -3.55852330849451
C         1.43241134618262    1.40510266030946   -4.30888050360165
N         2.12465301618227    0.66617745708387   -3.26438650576423
C         1.89588452983564   -0.70109797820378   -3.03046970465494
N         1.81161331633748   -1.64675022150654   -3.91249638349565
C         1.88195030184211   -1.17819320855595   -1.59049030106612
C         2.86865635626382   -0.49143180671579   -0.70472681100117
N         4.11363229040939   -0.71831689297416   -1.00151715395044
O         5.11675548964067   -0.28005789296813   -0.14770575279036
H         1.45743175064046   -0.01429661419066    2.37453486512864
H         2.57068769738989   -1.36086871924821    1.71649365301820
H         0.86330204347653   -1.11440993893398    1.17655177307042
H         3.13690382822161    0.89987328225057    0.95786984246352
H        -0.92655764540330    2.03501489011746   -0.85254137357858
H         4.14521431758192    2.70347674763039   -2.74763485875416
H         3.94129058858879    1.50855877109571   -1.41677144100089
H         3.38295967312490    3.20053025298870   -1.25854824171191
H         2.48034922299347    3.34002329264228   -3.97855542564042
H         0.71169431173525    3.22367622044048   -3.42133525064865
H         1.88116272175457    1.18022549384583   -5.28620053284883
H         0.37817274982425    1.13252038166863   -4.36793608050208
H         1.81832850340152   -1.41462014528432   -4.90304085478433
H         2.10654225512425   -2.25217116599012   -1.52300039493884
H         0.82964598372904   -1.12693977002610   -1.29499508612466
H         5.86414476961998   -0.40274383079096   -0.76419642455644
