32
 energy: -49.290593286432 gnorm: 0.119600066787 xtb: 6.4.1 (79825abcba525fcdf90b791dcacef51065a7a4e7)
C         2.13806852479228   -0.94536499290555    1.29456914733831
C         2.44681634137897    0.15387898290739    0.27722492348397
O         1.31227126833611    1.02528352728268    0.15960662693775
C         0.94220952862574    1.61081833248561   -1.00660673425431
N        -0.27958713947540    1.97030501625780   -1.18796771639311
C         1.99118321916528    1.92202099602287   -2.13386891201301
C         3.43919447640703    2.29148177417656   -1.70878998417573
C         1.42474511737692    2.97267532358194   -3.11889163293418
C         1.52172933732963    1.93741080087096   -4.25415350862605
N         1.88925063629312    0.94034495960134   -3.26069265530901
C         1.75362635423380   -0.45897635156929   -3.26102182493699
N         1.89394942010934   -1.16253579173842   -4.34020874618861
C         1.90837783923512   -1.17059555067321   -1.93023079335964
C         2.90793080524283   -0.56998218939762   -0.99751193744834
N         4.12519477483598   -0.99959051232122   -1.14993090731226
O         5.01565015429461   -0.72476392453053   -0.12091167589680
H         3.03404920288643   -1.56018896585060    1.43592072094981
H         1.27537507935905   -1.57150032850652    1.04959916832315
H         1.97106154759543   -0.45065418769871    2.25766819580883
H         3.30829149625100    0.72195436724663    0.64630587222290
H        -0.92782943046943    1.88209832200243   -0.39316202287679
H         3.66319663994181    3.18740826521034   -2.30229430061496
H         4.19771916131181    1.50061286200059   -1.74935489788133
H         3.30548647143458    2.74347166625966   -0.72234045164597
H         1.93016345664520    3.94071396445952   -3.11028801045428
H         0.41621819057101    3.27385042441251   -2.80670318685329
H         2.26051217145779    2.13643578015823   -5.04262731688106
H         0.56085228059574    1.75163879109917   -4.73520621770018
H         1.88788618376870   -0.64359579097911   -5.21529292972680
H         2.19831257163871   -2.18451900844759   -2.24058889995495
H         0.95182556261875   -1.25290451084559   -1.40532919643567
H         5.80374050560534   -1.24206655827314   -0.37589188381618
