32
 energy: -49.287635172095 gnorm: 0.114999945063 xtb: 6.4.1 (79825abcba525fcdf90b791dcacef51065a7a4e7)
C         1.99269448138207   -0.52557109107340    1.53988379827560
C         2.35441055667171    0.19426695505194    0.24001977428548
O         1.21847814083011    1.02144307666559   -0.05291315935514
C         1.06650467501393    1.89382799421885   -1.08038528052661
N         0.19776043474139    2.83505601098557   -0.96087426098299
C         1.95083637346971    1.91476919115344   -2.37862712690519
C         3.42129121690270    2.31149182012840   -2.07153802308413
C         1.37037006627263    2.75496784845024   -3.54143471885649
C         1.35447942536367    1.49461898590735   -4.42532743664575
N         1.81075590026458    0.72521532339083   -3.27815418281424
C         1.86168148478754   -0.67700500373616   -3.19052452800867
N         1.70595632268272   -1.55894652832510   -4.12714595705816
C         2.03051985952087   -1.31913159045468   -1.82651508312375
C         2.97522339271414   -0.66110597877592   -0.87554475119923
N         4.20813748957015   -1.07266776452986   -0.88367933048995
O         4.95757998934583   -0.55225127577214    0.16265887532554
H         2.78685434714025   -1.13155409662301    1.99028902220068
H         1.19022253158009   -1.26694457016018    1.48792355549620
H         1.72222700488667    0.25336984373263    2.26119389416753
H         3.16179935358815    0.82946314240628    0.62175133178535
H        -0.41615660386461    2.72913993541565   -0.14136084137662
H         4.05391980246701    1.48198203843075   -1.72977316505319
H         3.43131776985730    2.99363778065058   -1.21301882103802
H         3.93815917414092    2.67081307821912   -2.96540105627814
H         1.96972902425082    3.60598846427328   -3.87181826410797
H         0.34962508463879    3.11338381215044   -3.35458635518331
H         2.13443902878336    1.39537628900686   -5.19273598693570
H         0.46457682548944    1.06469961413939   -4.88625082816984
H         1.51192380030827   -1.11828907897541   -5.02340496916147
H         2.42706112687550   -2.31832026685569   -2.05630218173611
H         1.10009695645125   -1.41725806835101   -1.25908831467185
H         5.87756284039185   -0.87047896478388    0.24054349525693
