32
 energy: -49.286692813217 gnorm: 0.131412885092 xtb: 6.4.1 (79825abcba525fcdf90b791dcacef51065a7a4e7)
C         2.30127367918360   -0.15866199152941    1.55520673751897
C         2.46230411749299    0.37898224313121    0.13265280684263
O         1.18486742574151    0.92309430200014   -0.23131154106020
C         0.85312976953094    1.79970571522508   -1.21179758308951
N        -0.25052588847087    2.45664066429780   -1.28453169811689
C         1.86724535336772    1.91247704333861   -2.40627033612775
C         3.22232826176827    2.50769796400220   -1.93362631676634
C         1.28849169303916    2.71022469913913   -3.59943389372595
C         1.76366470377136    1.48329194500949   -4.39871152514788
N         2.18168340199108    0.70872458071605   -3.24048768356595
C         1.93693225863621   -0.66737236249067   -3.08900074681618
N         1.58376698885076   -1.45306744486098   -4.05713730850479
C         2.01631847835342   -1.37431911695274   -1.74912059799826
C         2.96229722773611   -0.75864406427082   -0.77143176038470
N         4.15772768674884   -1.26349553617251   -0.69661569467709
O         4.94991533360830   -0.76294247798358    0.32769206542512
H         1.71430619875106    0.56263264717919    2.13483884809693
H         3.25172062440448   -0.34144616453829    2.06465377335714
H         1.72507075552748   -1.09041799312156    1.55849811316112
H         3.16356374508521    1.22118065115945    0.13008136048455
H        -0.89321826992103    2.18435881177655   -0.52787875201049
H         3.77866386008471    2.87987143181260   -2.80373334185804
H         3.90609588832513    1.75304493083343   -1.52688377902780
H         3.08947747016854    3.29467715299612   -1.18645177525711
H         1.80753450245606    3.62413755068876   -3.89604541428989
H         0.22938444127408    2.93335193889142   -3.41558424379133
H         2.66191133853994    1.83734805666231   -4.92301986265965
H         1.01201273217589    1.05562279205444   -5.06303530421968
H         1.39188436369433   -1.21412005786154   -5.02728833594894
H         2.33152183991754   -2.42012285513657   -1.87308215766017
H         1.01436061551637   -1.28487274239436   -1.31857616332506
H         5.67071861822255   -1.42180007025685    0.32043797360524
