32
 energy: -49.280464088866 gnorm: 0.139745237543 xtb: 6.4.1 (79825abcba525fcdf90b791dcacef51065a7a4e7)
C         2.14328773168187   -1.03609339834520    1.36178742274055
C         2.38755623873081    0.05335827731592    0.31676122011768
O         1.13228217656707    0.69695528897966    0.05135130220797
C         1.01587641367230    1.58387165961907   -0.96829539670608
N        -0.16129784396910    2.00962599173168   -1.26478086593711
C         2.09197924986035    1.87631597391851   -2.07481787028523
C         3.51578998163978    2.20660520710889   -1.54793835895697
C         1.47019335026962    2.91607663516814   -3.03776983356906
C         1.47055227784445    1.90465911887586   -4.19838716196940
N         2.02247527977388    0.94981313870063   -3.24979513497183
C         1.82077094898696   -0.43983863457303   -3.18140261602698
N         1.60517164331265   -1.18421278661969   -4.22003389944024
C         1.83825238002594   -1.15361097254749   -1.84290414077089
C         2.91459544873155   -0.58558941607243   -0.97766188649941
N         4.17481426468170   -0.67814038030762   -1.28230807158751
O         5.16889358825053   -0.32013384731722   -0.38177565249487
H         3.12741945936969   -1.47043219820740    1.57060484211165
H         1.51167064171256   -1.79343383133481    0.88872182791590
H         1.54174192547263   -0.60381916276603    2.16892527942177
H         3.09291223764567    0.81749121454268    0.66265660055890
H        -0.89240082388111    1.70682693888550   -0.60636173262981
H         3.41192083202712    2.42639745371199   -0.47741923625698
H         3.90444471492070    3.06454956173591   -2.10950566880035
H         4.14398834703787    1.35093632777162   -1.80957352124915
H         2.13711979541393    3.76943778236719   -3.17778557563874
H         0.42181280477181    3.15107465591700   -2.81200713898086
H         2.13766605909088    2.19619570756549   -5.02122833124558
H         0.47342104677284    1.77127564127826   -4.61927410830828
H         1.60655374875072   -0.76731321402137   -5.14809675063605
H         1.90918756562202   -2.23001534922571   -2.05443878744998
H         0.80953683253398   -0.85911797394883   -1.61419706142649
H         5.97813833426903   -0.56908772169519   -0.86844621112835
