32
 energy: -49.295325251148 gnorm: 0.129676085317 xtb: 6.4.1 (79825abcba525fcdf90b791dcacef51065a7a4e7)
C         2.10130543557982   -0.88801261464665    1.37319898227762
C         2.41323739936782    0.02025459996747    0.18307254951792
O         1.10185452476790    0.53756117041947   -0.08718910438545
C         0.93833088768760    1.55667533320974   -0.96725538964787
N        -0.01414106952553    2.41568926781625   -0.86825114440581
C         1.91704439093197    1.91005168135134   -2.14418274038801
C         3.23982040253260    2.54975636584934   -1.63923567839510
C         1.18849832372239    2.88890301257935   -3.09605831466872
C         1.43997915535954    1.89810144169200   -4.24717418261667
N         2.10016414445385    0.99576804087144   -3.31651479242036
C         1.97345150338720   -0.40434167019644   -3.30507308827855
N         1.76725806346528   -1.10324777505903   -4.37668187732191
C         2.10185116553796   -1.23413363541086   -2.04162007640647
C         3.04053749377215   -0.76570780879180   -0.97895727245158
N         4.29747549855030   -1.06081010971982   -1.12911688158639
O         5.18215985823324   -0.76006966512335   -0.10236969706563
H         2.91133546248162   -1.56963216032944    1.65607052715145
H         1.20332980321297   -1.48964432016273    1.20594233251259
H         1.94328611935152   -0.36120104606374    2.32066368005725
H         3.05844093773227    0.87419964164496    0.41878444052512
H        -0.55717728823066    2.19422556302245   -0.02221327035115
H         2.97171589362077    3.32962028416796   -0.91463864108958
H         3.74446760072108    2.93245428239083   -2.53441855049210
H         3.85530795880962    1.75280330160331   -1.21344670153991
H         1.74635849676628    3.81506650839767   -3.24979101180845
H         0.12218843252513    3.04111404899601   -2.88366799913210
H         2.16461563962811    2.25287892972344   -4.99292003431018
H         0.52947419636970    1.52777033671780   -4.71944874586099
H         1.51491372855122   -0.55703166511668   -5.19709525999281
H         2.21960553847921   -2.26291132063915   -2.41063966794958
H         1.11843364248892   -1.12813488592822   -1.57370666110577
H         5.99828832975786   -1.13765919645749   -0.48324209961203
