32
 energy: -49.290836634375 gnorm: 0.119615131958 xtb: 6.4.1 (79825abcba525fcdf90b791dcacef51065a7a4e7)
C         2.12277917758177   -0.80647788573860    1.54176458520385
C         2.37300749720241    0.03047748179008    0.28655811227281
O         1.12953226000288    0.66927425805300   -0.03914188208980
C         0.95040124375766    1.67812509263736   -0.92795141314141
N        -0.19584628030447    2.26203805602534   -0.93642835412183
C         1.93907457109755    1.98521355126004   -2.10953283550367
C         3.37935593764087    2.40897280410619   -1.70959825854355
C         1.31360960279757    2.94499053256580   -3.15002220055727
C         1.41912178984578    1.83089986731870   -4.20722003922152
N         2.03347330287522    0.97084508189602   -3.20769281388703
C         1.96855571954271   -0.43090152159522   -3.29363682544417
N         1.66283964584542   -1.02030707533768   -4.40650233616134
C         2.05255291554469   -1.27140963007576   -2.03353949765667
C         2.90826451576171   -0.73579407767714   -0.93323015793023
N         4.15466437580749   -1.03684564049521   -1.14626012328579
O         5.18269380844391   -0.68544179895113   -0.28197322915536
H         3.05743800484841   -1.35257204593237    1.71195331812073
H         1.37450981784094   -1.55427153481068    1.26392766381097
H         1.73841159718622   -0.42886893582166    2.49563193528655
H         3.12246303928223    0.76293566330240    0.60732474230638
H        -0.70866488359830    1.91689740850035   -0.11325789506507
H         3.41643645613479    3.04697642019649   -0.81702611109817
H         3.82383852185325    3.01275981227697   -2.50982031524240
H         4.00021786589560    1.54156305941547   -1.47004415349571
H         1.99352009338980    3.75325401154600   -3.42760535389295
H         0.31460451092484    3.33173529707329   -2.90978910567658
H         2.13384464912860    2.03027922962893   -5.01747992445283
H         0.47406897210798    1.47184915061073   -4.61607872695113
H         1.73480077362367   -0.49601013944571   -5.27543394248544
H         2.53446482826066   -2.21847303326144   -2.31506553200264
H         1.01914547691295   -1.52214514387748   -1.77568396543279
H         5.91996689428127   -0.96428619313268   -0.85849514931958
