32
 energy: -49.293569142515 gnorm: 0.131333609359 xtb: 6.4.1 (79825abcba525fcdf90b791dcacef51065a7a4e7)
C         0.95150033825596   -0.81973627722998    0.73694458432560
C         1.93961972186704    0.15241403917526    0.09103773666271
O         1.21682909089440    0.82341970506567   -0.95188968653262
C         1.87431903441554    1.94575909033527   -1.33648250674338
N         2.35928272459043    2.95109016640556   -0.69692855166623
C         1.97740823520405    1.98063124669377   -2.90366773876532
C         3.29486130675792    2.66454303251726   -3.36248370291781
C         0.78936188196301    2.47966790141790   -3.76070022312776
C         0.63716157901631    1.00407106035539   -4.17233978657686
N         1.82188221127041    0.58951579734869   -3.43697754406885
C         2.20602470702540   -0.60321642198062   -2.79954630210280
N         1.59534051815027   -1.72648321834933   -3.01089289127052
C         3.45923987855796   -0.65376423710804   -1.94616987723340
C         3.17742892837876   -0.55450581856509   -0.48311233777160
N         4.13319931190079   -0.97704789079014    0.28986088391408
O         4.07346328184497   -0.60660137153288    1.62646927776097
H         0.11856568336821   -0.18673055368397    1.06297185033829
H         1.44482950184056   -1.28691366955379    1.59407196904225
H         0.59259727804723   -1.59831376833311    0.05489211511831
H         2.23041900251142    0.84858197526385    0.88593132726965
H         2.15768349465966    2.90564802413488    0.31153927230793
H         4.14209976446744    1.99904730435947   -3.15174439372951
H         3.33330835053665    3.58142598506873   -2.76221181137273
H         3.18648763478900    2.98568422229636   -4.40189645001627
H         1.08903171493700    3.10307100394783   -4.60579613182734
H        -0.01838293269570    2.94165372288628   -3.17810942252461
H         0.76231703970081    0.72796786144738   -5.22837250604799
H        -0.27463496077911    0.58805505660236   -3.74249629924932
H         0.72476034354319   -1.62828013269731   -3.52814924047315
H         4.14328846782925    0.18738941963141   -2.12772737904441
H         3.97405373972677   -1.61580394305150   -2.02823692959692
H         4.89515261026729   -0.85210590018238    2.09364964491443
