32
 energy: -49.288832041550 gnorm: 0.127461344613 xtb: 6.4.1 (79825abcba525fcdf90b791dcacef51065a7a4e7)
C         2.17091512802199   -0.81705556681635    1.47806847571939
C         2.53227480117111    0.13689160548649    0.33874596042996
O         1.35552695759701    0.94423410030568    0.18435976937961
C         0.99778747076711    1.53136489960631   -0.98489221642437
N        -0.21760206042105    1.58783250401497   -1.40268319678871
C         1.99181552364497    1.99685847387476   -2.10878585988384
C         3.38058480509591    2.42945533348583   -1.56279150938359
C         1.46310527416836    2.95630566005292   -3.20191117905480
C         1.80684821138751    1.88927681201337   -4.25703597422482
N         2.08014967244852    0.95206414633252   -3.17855768729655
C         1.75634164381832   -0.41581440347975   -3.15508776980222
N         1.38379907452835   -1.08311229845790   -4.20163276115498
C         1.79153217618373   -1.17200595917104   -1.84044308857765
C         2.84496171203911   -0.77111860984695   -0.86096232675187
N         4.04779490197378   -1.00319594365154   -1.29554127694184
O         5.05077603221583   -0.43003095834567   -0.52558558259843
H         3.00445654537772   -1.51529180762367    1.61388092339478
H         1.22465883047280   -1.33239976158548    1.29014531601321
H         1.96464284860446   -0.23051595099826    2.38007341813133
H         3.43727982786052    0.74669325051091    0.43963051408002
H        -0.95014085717048    1.18590084250777   -0.80139089330379
H         3.25641444282836    3.10058655603693   -0.70298151639365
H         3.81494082989307    3.03721247329130   -2.36556480669975
H         4.05124505039446    1.57858697977720   -1.41618574990373
H         2.01220352987150    3.89923649111608   -3.24655517251520
H         0.37256191975425    2.98421518724860   -3.07849772405433
H         2.70063773053605    2.07352129118641   -4.86883352352378
H         1.00740358047348    1.49565281579872   -4.88565040827234
H         1.30971779722799   -0.45298417347984   -4.99696812062600
H         1.93056706569714   -2.25234863478989   -1.98861219879685
H         0.84855787141707   -1.23101752311428   -1.28853204165616
H         5.92253209122250   -0.73865679701135   -0.83942437517903
