32
 energy: -49.291300885042 gnorm: 0.126440598212 xtb: 6.4.1 (79825abcba525fcdf90b791dcacef51065a7a4e7)
C         2.28665344106049   -0.90801970940043    1.41458891772810
C         2.39087661337147    0.08602776108907    0.25715253395385
O         1.10815673168135    0.66819150378454   -0.01868725831109
C         1.03852935552333    1.73824768334362   -0.84933889362360
N        -0.00267341483303    2.48937239053961   -0.76798731669215
C         1.88062617005954    1.96062558686823   -2.15675389440012
C         3.35455555640398    2.31375663666627   -1.81505136097323
C         1.27772108463003    2.87247660739109   -3.25221250958738
C         1.60634698367438    1.78462684847564   -4.29076247203150
N         1.74549814385310    0.86656903843050   -3.17094842577748
C         1.96194477142119   -0.51833249257378   -3.27908179653666
N         1.80610235274108   -1.13582504807906   -4.40768578712707
C         1.91708004759318   -1.28465240352415   -1.97061106139288
C         2.86086537862486   -0.74540760624413   -0.94675006012794
N         4.11111643440294   -1.04000557569134   -1.14577465652841
O         4.99920815166222   -0.45115169952571   -0.25590655426221
H         3.18910915665441   -1.52958525660705    1.41493080908808
H         1.39977991516722   -1.53723284518559    1.29693724684313
H         2.23773155733672   -0.44574183678094    2.40660489970186
H         3.12415534968455    0.87991485938132    0.43912895246370
H        -0.70631565313039    2.29471947643456   -0.04223775317322
H         4.00670512435199    1.43415687096012   -1.73686047674574
H         3.23616450462367    2.60302554392626   -0.76396338815764
H         3.83488178319284    3.08961023801818   -2.41720854111639
H         1.78125529713596    3.83805229465539   -3.33429431551800
H         0.20623693403141    3.08228719311393   -3.13733926931748
H         2.55210107442621    2.07058483141740   -4.77126138469032
H         0.84650117196784    1.52222874512764   -5.02764051459304
H         1.69286537208116   -0.45192157479364   -5.15237448119418
H         2.16054985742679   -2.35267658459288   -2.06265391787706
H         0.90881511374422   -1.18127748411636   -1.55829543523577
H         5.83491463666926   -0.92751445171630   -0.42435988042141
