32
 energy: -49.289928578772 gnorm: 0.120734935049 xtb: 6.4.1 (79825abcba525fcdf90b791dcacef51065a7a4e7)
C         2.29472243540539   -0.82461392833211    1.34668338428868
C         2.36645939885073    0.15068983133686    0.17097585130876
O         1.10538354918349    0.80212910164743   -0.04276948410511
C         0.95649744582983    1.74978750104257   -1.00174122962196
N        -0.17285921647629    2.36362623275213   -1.05336626483988
C         1.98362319820258    2.09905150766110   -2.13793676293450
C         3.47885921888263    2.42164334452829   -1.86566166784674
C         1.33434153648405    2.93641498340696   -3.26587830892500
C         1.35532576101490    1.69448483268707   -4.17536567352792
N         1.92761025335934    0.93266770704946   -3.07613783829063
C         1.82635850029531   -0.46704832371648   -3.16002671493828
N         1.84869751251210   -1.08157470518388   -4.30072350963714
C         1.89387213030074   -1.30205617008721   -1.89529017272820
C         2.91346249037367   -0.70674694536969   -0.98104213538441
N         4.12896867745888   -1.16636922511980   -1.00965176828953
O         5.05536776771125   -0.81787170103987   -0.03617592421769
H         3.24799132021755   -1.29542058135460    1.61199393890794
H         1.60378743097542   -1.66098282590607    1.20742958449595
H         1.89496097381919   -0.19232150072791    2.14705014576694
H         3.05212587493232    0.95407132857384    0.46339591740447
H        -0.83151313332657    2.11873915005366   -0.30108977273835
H         4.00570697610807    2.34931737813863   -2.82603087608550
H         4.02875587241503    1.74393071871424   -1.20173537860763
H         3.55389181662225    3.45024748830742   -1.50289591345165
H         1.98026266705162    3.78629300083877   -3.49634258698016
H         0.30089565814403    3.23719065202214   -3.04950307382844
H         2.01254931720009    1.75397015314839   -5.05378509044502
H         0.35219718946294    1.39453516999024   -4.48027704592440
H         1.90540771219863   -0.48483621898579   -5.12279099696477
H         2.34797511321283   -2.25104148069550   -2.21410431976706
H         0.96223599361005   -1.51080065000561   -1.36071691927015
H         5.93674598706816   -0.96977020089144   -0.42835267408690
