32
 energy: -49.288410577855 gnorm: 0.120123590491 xtb: 6.4.1 (79825abcba525fcdf90b791dcacef51065a7a4e7)
C         0.82773046574150   -0.59428260338817    0.67686261246490
C         2.02315141464394    0.19977254575987    0.14856632483307
O         1.46571834087433    0.94753230107838   -0.94253229904408
C         1.95448700235760    2.13493621729560   -1.37959917838732
N         2.45717663336006    3.12815360529352   -0.73482640638014
C         1.98752538996093    2.03238759448463   -2.94685958977912
C         3.30334149340926    2.63635129608385   -3.51058453981377
C         0.69282534953525    2.34485432877141   -3.73496663721333
C         0.56650519905872    0.83921144333556   -4.03006122700167
N         1.86349047695192    0.61361823550995   -3.41109953595126
C         2.29564080943118   -0.51641078548351   -2.69501663634904
N         1.80840722153562   -1.71721161425636   -2.69843147155705
C         3.54187913492936   -0.19046294294162   -1.89376589570910
C         3.24674170019507   -0.50036074334263   -0.46314914731007
N         4.10568529566159   -1.22386102618814    0.19128929246009
O         3.69422015192280   -1.39699836659868    1.50583899403472
H         0.25082087113669   -0.02278906767433    1.41262114224720
H         1.17307542421787   -1.51346830200453    1.15866157436423
H         0.14446641950982   -0.77982379406143   -0.15914850918808
H         2.44915128682686    0.82089469729707    0.94468265815744
H         2.35519388639425    3.18452014029471    0.28798193722519
H         3.10264104404168    3.61209179472612   -3.97184198362551
H         3.62181622082732    1.97360334234620   -4.32410642561453
H         4.02466772930637    2.76042924628356   -2.69845863063374
H         0.74491344494402    2.92991971771887   -4.65562175329342
H        -0.09846001137191    2.77095849417194   -3.10441343824480
H         0.63838695603877    0.70060505106216   -5.11759203286941
H        -0.31717550797829    0.30656921162077   -3.67706218324985
H         0.90659283673902   -1.84402831695354   -3.15203499305373
H         3.66592705099358    0.90136613571183   -1.92453062392815
H         4.44463911725692   -0.70056929464032   -2.24320063093970
H         4.37901559750677   -1.98000712777193    1.88644286363158
