32
 energy: -49.289326668666 gnorm: 0.122401255612 xtb: 6.4.1 (79825abcba525fcdf90b791dcacef51065a7a4e7)
C         2.17427413480318   -0.69698912802820    1.45884853433675
C         2.51441974912043    0.21058531608728    0.27594472971350
O         1.40668395936092    1.10704443654274    0.10373860545016
C         1.02063110114823    1.80977828986041   -0.99032658205413
N        -0.09880599890077    2.43846052506496   -0.90952544532067
C         1.85432522860051    1.99225193173718   -2.30925433017268
C         3.29518355805660    2.54318006878871   -2.12395602012212
C         1.14361594647843    2.80090026783998   -3.42099916822441
C         1.53087892841599    1.70388958447829   -4.42926155834842
N         1.94564210707854    0.87780734560656   -3.30599118637206
C         1.98500842307953   -0.51769286388166   -3.14008855013016
N         2.13705534555789   -1.37903172176180   -4.09628308607576
C         1.71808367906437   -1.08929521433862   -1.76045937653387
C         2.86008793044539   -0.77530057277287   -0.85104159434067
N         4.05604361754802   -1.27003381048450   -0.97127246102389
O         4.98089020975651   -0.95879787927834    0.01620513132801
H         3.06246540313920   -1.24387752414692    1.79470492829275
H         1.49493970426589   -1.46359035276113    1.07528233308035
H         1.76405877114250   -0.09485156078548    2.27698275104345
H         3.39512465280067    0.81739190929960    0.51514019819673
H        -0.66775129003307    2.25666502988354   -0.07109462671677
H         3.38364398434860    3.57832644335371   -2.47857604059239
H         3.99540243207336    1.85971216124243   -2.61897522229516
H         3.48071146474244    2.50226394849941   -1.04731279075289
H         1.57150807797659    3.77378993210771   -3.67202617387298
H         0.06047551451653    2.89959131178123   -3.27146151289807
H         2.47490680505629    1.85896014083678   -4.96950823629474
H         0.89243093349507    1.17006627192547   -5.13397746073946
H         2.22490778795708   -0.95500681882742   -5.01693103934655
H         1.65823922952367   -2.16731132986895   -1.96715962740584
H         0.77608894896661   -0.80018193726338   -1.28469876577334
H         5.72460321627885   -1.57982234874815   -0.10595417108340
