32
 energy: -49.297000133474 gnorm: 0.141468377678 xtb: 6.4.1 (79825abcba525fcdf90b791dcacef51065a7a4e7)
C         0.96357025521486   -0.86366240173993    0.53659331442440
C         1.94026723436718    0.22566899958989    0.09154060184621
O         1.29016028154442    0.97435478766654   -0.94634332157727
C         1.99528161846673    2.03861855023160   -1.40459749246622
N         2.57189516519447    3.03283516024853   -0.82670498479195
C         2.04066208630309    2.06510430507318   -2.97467777961600
C         3.26665516954926    2.83095778339797   -3.54418580595657
C         0.62193821840369    2.32654488963111   -3.53491683972004
C         0.52462448035131    0.84140330384836   -3.92846811516120
N         1.86001875963851    0.63696722848826   -3.38892692516693
C         2.24356447594917   -0.52290595300594   -2.69316756263556
N         1.71583576038168   -1.67673695478542   -2.95680991868614
C         3.53055793386595   -0.61361705240412   -1.89518634660186
C         3.18983974537802   -0.48877379039813   -0.44669323560481
N         4.10205634709973   -1.03145154133798    0.30356549556263
O         3.80560803301119   -0.82124702207703    1.64343618973904
H         0.09137491841054   -0.34458911989891    0.94964099360487
H         1.39406966765890   -1.43487895437941    1.36404581329736
H         0.67147706593510   -1.41517570000643   -0.36379801119117
H         2.22482196068052    0.85367272584061    0.94342660376975
H         2.61131926247800    3.05839635658000    0.20164658289779
H         4.19242186258311    2.24486600152254   -3.47665012193489
H         3.33850286655211    3.73752610666548   -2.93144553158932
H         3.07330903669099    3.01159613436954   -4.60496025384601
H         0.52843520924290    3.01931994734955   -4.37392842203543
H         0.00303964942596    2.67714014936380   -2.69865004427177
H         0.59177051183173    0.59983409464270   -4.99815858634102
H        -0.24577449639674    0.24632858599907   -3.43696107740268
H         0.85648332996077   -1.68208528616197   -3.50141308757430
H         4.20699447440467    0.17090488491332   -2.26313201093537
H         4.03526814753909   -1.56549828687651   -2.08617959030364
H         4.48507242964289   -1.38932211076242    2.05492391827545
