32
 energy: -49.289242642266 gnorm: 0.126822814255 xtb: 6.4.1 (79825abcba525fcdf90b791dcacef51065a7a4e7)
C         2.12238348658203   -1.02811894598714    1.33949435685990
C         2.36274938708387    0.04487311981471    0.27668483991433
O         1.11069569919866    0.66611545424569   -0.05010562824241
C         0.91243294414787    1.59482668005739   -1.01862907033200
N        -0.26277114971404    2.11202007968320   -1.09810185448729
C         1.99320868302212    1.97234080418424   -2.09441707754226
C         3.36977158113022    2.29692946473210   -1.45126330407961
C         1.37389631448582    2.93469252818586   -3.13620772246395
C         1.57328700573536    1.89108493943276   -4.25026546530959
N         2.11036651900355    1.00331104883297   -3.23066759902169
C         1.78437767955232   -0.36285317402095   -3.16885479458080
N         1.65587316314806   -1.09422347233986   -4.23088820296466
C         1.90662718426316   -1.16095552874079   -1.88454860095470
C         2.95960203775326   -0.65006954646185   -0.95716168054843
N         4.20460476153738   -0.95183803194417   -1.17723080859405
O         5.30207258095633   -0.42732415666707   -0.50807418531318
H         2.64380304944239   -1.96190209784445    1.10087158768106
H         1.04583100377641   -1.19990278975425    1.25105908105882
H         2.36610596590536   -0.63716706174998    2.33344901651789
H         3.05565351347837    0.79634683726522    0.67195810684377
H        -0.82260926965432    1.81162889239404   -0.28812592676716
H         3.31917576993449    2.59871640718576   -0.39699895310968
H         3.90248042634097    3.14588002657342   -1.89621620232830
H         3.99831469846783    1.41809737525423   -1.61812576789542
H         1.87216097548111    3.90637396329757   -3.12249461112550
H         0.29698131690181    3.11996934728811   -3.03027748510585
H         2.37059126123299    2.16394912778931   -4.95521442458427
H         0.70651366937602    1.56934070026145   -4.82853209881592
H         1.64447402616361   -0.56075736465210   -5.09713978022149
H         2.24596249588596   -2.16802141145699   -2.16578684102442
H         0.91677840621754   -1.18189732953528   -1.41866282834974
H         6.00465237422569   -0.83172818998330   -1.05263119325742
