32
 energy: -49.289335707543 gnorm: 0.122051825236 xtb: 6.4.1 (79825abcba525fcdf90b791dcacef51065a7a4e7)
C         1.24851603855434   -1.07608354112844    0.93245175354287
C         2.00731549355821    0.04462065866129    0.22048454916410
O         1.05311119460602    0.67412565283364   -0.64761114368810
C         1.42143433118429    1.88934795543321   -1.12450019723122
N         1.17489034467044    3.00697381863973   -0.53710076401214
C         2.13445029266429    1.86176173082157   -2.52405734395435
C         3.64225739515780    2.23295086472768   -2.47242046368707
C         1.36400495685616    2.60025828780628   -3.64478622493712
C         0.86900070002503    1.24424297991887   -4.17975479870721
N         1.90957875890016    0.64056424239546   -3.36186362280853
C         1.88090466183991   -0.71772020648597   -3.00029016675650
N         1.13604071987031   -1.64055014790547   -3.52268223459010
C         2.92869631885808   -1.20888507291843   -2.01934959735319
C         3.09386815200675   -0.54731038629200   -0.69087520356669
N         4.35037752195821   -0.40839850443732   -0.38852749730892
O         4.64414863619600    0.30740680327102    0.76413998040282
H         0.42818914572655   -0.65066189639538    1.52139179839187
H         1.96138939414797   -1.65041924764525    1.53098814354322
H         0.82593233190570   -1.70372093963781    0.14018652152667
H         2.48479725574100    0.85538267582472    0.78239731878230
H         0.89071424817352    2.87119559553266    0.44296189082065
H         4.07003572037261    2.00458830924628   -1.48755251800739
H         3.77485253431072    3.29803881820346   -2.69710922716379
H         4.19568256598647    1.57063773396017   -3.14347729396922
H         1.97000483755985    3.11609986224412   -4.39264459895963
H         0.48600639670381    3.22622553898350   -3.43844147983635
H         0.98646263594879    1.02019496329160   -5.24891669243099
H        -0.16844565001988    1.06764904349736   -3.89387488724805
H         0.44494153937096   -1.26068893495194   -4.16548484895116
H         3.93562072955411   -1.11851804896052   -2.45104638548869
H         2.81331849979842   -2.27654605158703   -1.80940506707411
H         5.61104066943577    0.42705625292889    0.83127512727668
