32
 energy: -49.289110283028 gnorm: 0.128389951707 xtb: 6.4.1 (79825abcba525fcdf90b791dcacef51065a7a4e7)
C         2.06711511028806   -0.99826447831186    1.36924623316842
C         2.54175113642885    0.01852280051182    0.33024860076024
O         1.34710296275236    0.79304322757990    0.14774838152334
C         1.07564273987913    1.39215171938997   -1.03851831010938
N        -0.15324351890071    1.64184350395953   -1.32557609313043
C         2.04483773733310    1.89853537343209   -2.16641439692930
C         3.42326289838044    2.41747406590216   -1.67186744341168
C         1.42701560518253    2.96076375038973   -3.10713915818718
C         1.71086727664708    1.97623552616116   -4.25610848132229
N         2.11135724592450    0.94070960850603   -3.31617734417727
C         1.63668213664133   -0.36938366166996   -3.12954031660953
N         1.16229001619687   -1.10282021281343   -4.08680402821337
C         1.86395133093601   -1.12579924143679   -1.83434192630826
C         2.99080008759759   -0.69869928456301   -0.95252306310789
N         4.24260704789879   -0.83209949620097   -1.27611251663809
O         5.12353723308301   -0.30553025508286   -0.34122864320162
H         2.90143925288846   -1.63010214956222    1.69398388629479
H         1.23054590643181   -1.48926461152159    0.86390815588365
H         1.61628898239893   -0.32718865694122    2.10857223438558
H         3.38826768443665    0.58736990046125    0.73136272380614
H        -0.85606654239174    1.30177576752340   -0.65467497168138
H         3.23144667477348    3.42607589048925   -1.28323198492104
H         4.05365206174089    2.49283859490613   -2.56596394285625
H         3.94517380805407    1.83672818682138   -0.90662330796808
H         2.05499584990983    3.85190897291640   -3.17133834284239
H         0.37999773969963    3.24014823065514   -2.93109222128481
H         2.51714899292958    2.20740391546057   -4.96573721675090
H         0.79306998529347    1.68251677254234   -4.76658384774552
H         0.97960909459243   -0.61504501811988   -4.96076676222651
H         2.08367036418671   -2.16431917107806   -2.12004279726169
H         0.91714110424242   -1.12197346421216   -1.28586725458047
H         6.03540051648398   -0.62455746318632   -0.48416329319963
