32
 energy: -49.283690983665 gnorm: 0.131837931852 xtb: 6.4.1 (79825abcba525fcdf90b791dcacef51065a7a4e7)
C         2.05434394305238   -1.14454230123491    1.27245587338008
C         2.38076055837712   -0.04735334026095    0.25841426160298
O         1.18307219183910    0.67246921788578   -0.06986997822805
C         0.99552323399969    1.73272989130413   -0.89480816394421
N        -0.01140538778675    2.51851802931295   -0.74137625269861
C         1.89032025588927    1.98553609627286   -2.16103889464550
C         3.35123874979938    2.34384959130987   -1.77211913777739
C         1.31763644312963    2.96672471136228   -3.21189499590287
C         1.37145795766729    1.82547467134115   -4.24371362908283
N         1.71752502110139    0.89864802159476   -3.17722095434848
C         1.92964555359927   -0.49113047823125   -3.18106850564630
N         1.87650220040687   -1.18456548294259   -4.27452840506823
C         1.97280273268051   -1.29267159811296   -1.89381406504874
C         3.00232313452132   -0.72980754195827   -0.97019139810315
N         4.27507630296912   -0.84492553265770   -1.20762276143711
O         5.19116562100881   -0.33898725192840   -0.29541235095587
H         2.97593027823933   -1.71235832454182    1.44284881406571
H         1.34162377059464   -1.76559668910229    0.72234939301877
H         1.63420893353013   -0.84853159009784    2.23995477228805
H         3.10140228615881    0.52677407417984    0.85181382827831
H        -0.56666048935243    2.39602152340677    0.11676182574508
H         3.34196155638473    3.26444190812787   -1.17417905536054
H         3.87116352401827    2.55962093630148   -2.71318226900227
H         3.77545049542770    1.54703104885613   -1.15536961452329
H         1.94874988872159    3.83890187259311   -3.39526170509419
H         0.32596676248280    3.42240034996324   -3.09254015115222
H         2.22160543103955    2.14219844183940   -4.86342105786590
H         0.46121576322250    1.49190911482191   -4.74311410831066
H         2.02547284710771   -0.66996302750988   -5.13945607803265
H         2.13599519569413   -2.30274161710918   -2.29574921975463
H         0.97365990624941   -1.25748766682595   -1.44910694394235
H         5.90640088989169   -0.98454262701116   -0.45478641299251
