32
 energy: -49.289500015464 gnorm: 0.119712531402 xtb: 6.4.1 (79825abcba525fcdf90b791dcacef51065a7a4e7)
C         2.02979329009975   -0.92756430697633    1.22806558557317
C         2.45462189939326    0.11420614057701    0.19226309948570
O         1.24146350369957    0.84320878730911   -0.04684839075099
C         0.90060260310415    1.77307024649983   -0.97368268901996
N        -0.28861331880438    2.25573610149266   -0.88588324515695
C         1.87740171044465    2.08576587500667   -2.16363977657569
C         3.31096184061531    2.39927355537665   -1.65320048368252
C         1.26482484637481    2.97836621551718   -3.26953787518947
C         1.64108613102829    1.87422491311209   -4.27417588647500
N         1.98074042325486    0.98490990964878   -3.17420748867686
C         1.85860778575961   -0.41388029930728   -3.24466147107737
N         1.66348663454643   -1.05070400746186   -4.35628827671390
C         2.03398962512564   -1.19045316761256   -1.95333251766976
C         3.04282558447578   -0.71401663156841   -0.96082799245031
N         4.28553768336027   -1.08346074309214   -1.05412372768192
O         5.22759790517149   -0.81549561010344   -0.07023438907381
H         2.85437477674398   -1.49532443815114    1.67358097717688
H         1.37200845557769   -1.71539868914575    0.85000232568146
H         1.49971661499908   -0.50086581364667    2.08663241443337
H         3.28509155484557    0.69595170044893    0.60815019952485
H        -0.84760473647535    1.80840556760193   -0.14619508626541
H         3.84026120458941    2.67986795884466   -2.57310134210150
H         3.78984511149962    1.47777414152343   -1.30108047335579
H         3.42626268522905    3.20040428652718   -0.91825107736070
H         1.76843829737646    3.94298564852466   -3.36175161088256
H         0.19621251280769    3.08000047157390   -3.03924938154969
H         2.52459405372853    2.13287470110725   -4.87385581254698
H         0.83602515854754    1.36397588809984   -4.80401590124328
H         1.57750992795946   -0.56482886521117   -5.24603046588772
H         2.19402109900041   -2.23263796868695   -2.26424383317911
H         1.12706597164410   -1.12706570267640   -1.34443167817726
H         5.96293319561323   -1.38313876279099   -0.37150932048904
