32
 energy: -49.292744944617 gnorm: 0.110997506408 xtb: 6.4.1 (79825abcba525fcdf90b791dcacef51065a7a4e7)
C         1.99707549772518   -1.16184799059855    1.17844083439508
C         2.44047598910254   -0.09385126766941    0.17772568113604
O         1.23087132511620    0.64327821067545   -0.05437166472954
C         1.01548688419921    1.61587367360819   -0.97497903907345
N        -0.16919760283582    2.11569036392297   -1.01517295262496
C         2.04973340603925    2.01099791980088   -2.08948517387172
C         3.47581213037172    2.44516928345868   -1.65162138938396
C         1.44876246957278    3.06530082948201   -3.04983704461731
C         1.47182246819544    1.96980824175457   -4.13120762526385
N         2.03790661661882    1.00600225162981   -3.20018482325730
C         1.73490075161756   -0.36441778593984   -3.28161327315715
N         1.20667966543680   -0.89363083700402   -4.34003044370387
C         2.17798939575612   -1.29125265939606   -2.16536766111681
C         3.04247700894259   -0.75000996994963   -1.07471440119830
N         4.33350419560300   -0.88118999198694   -1.14932699161169
O         5.02370789005583   -0.55670761821122    0.01069502022853
H         2.83088222509610   -1.39118590718896    1.85144947113819
H         1.67485138688476   -2.11123888466490    0.74126319948650
H         1.23698180300287   -0.67497417638342    1.79924785390328
H         3.16182060657646    0.57252173272480    0.66422213729459
H        -0.76978435088060    1.81125386400573   -0.23650192849770
H         4.14939582928571    2.65003267481080   -2.49389486681916
H         3.90340623552900    1.66069424724573   -1.01582184519510
H         3.28234982439325    3.30138772726798   -0.99991770698100
H         2.21539575178635    3.79863155967588   -3.30891230186727
H         0.51193375089700    3.51795526802177   -2.69947931302286
H         2.12368945083818    2.10378375993216   -5.00540553083584
H         0.47614652008177    1.59592121153009   -4.37213412177454
H         0.89163835491211   -0.27932932632417   -5.08735262678550
H         2.74811155173143   -2.14018322095649   -2.56873190679086
H         1.33170548966141   -1.83872713205241   -1.73949918076373
H         5.98877993296886   -0.68965591301887   -0.05759864501318
