32
 energy: -49.287003809122 gnorm: 0.130279519541 xtb: 6.4.1 (79825abcba525fcdf90b791dcacef51065a7a4e7)
C         2.53094376297015   -0.56500348315726    1.61802898400359
C         2.43562257298437    0.10915654523191    0.24869560150994
O         1.13737862729946    0.69486938912547    0.07015822614967
C         0.84625584031141    1.49367139997750   -0.98673020932849
N        -0.39226409598296    1.79173128028760   -1.16600166533135
C         1.88957113639190    2.01351549826367   -2.03990075949736
C         3.37410743883548    2.39216538156569   -1.78162533432076
C         1.28367907198987    3.03082551786654   -3.03638032186397
C         1.61941964425048    2.09932322119067   -4.21518473312832
N         1.96523335506811    1.09527232582171   -3.22096577201774
C         1.97006597520536   -0.30957496836084   -3.27458404831797
N         2.08933842895415   -1.00970784175798   -4.35852081170806
C         1.74574232190115   -1.12945706934274   -2.01807024904624
C         2.74615519113705   -0.77902045371733   -0.96632156968840
N         3.91539798987040   -1.32975087157877   -1.10450155832032
O         5.00021376745469   -1.02893875908291   -0.29209290986000
H         3.55274388291675   -0.95894580160280    1.65681204706606
H         1.94341511547299   -1.48706103465113    1.64828931582113
H         2.41302841899435    0.08795997560868    2.48976551110179
H         3.26129363313915    0.82973118483981    0.23823986824070
H        -1.07767803170724    1.40779629883518   -0.50078271940142
H         3.50556735204961    3.16661326930690   -1.01477634593009
H         3.64537492901112    2.75999650341571   -2.77841672701415
H         4.02812494854147    1.55456256708617   -1.52484141142351
H         1.71845022578294    4.02738008782922   -2.93403989560051
H         0.19157499839744    3.14277598441849   -3.02798933392345
H         2.52712052193338    2.29215402864189   -4.80340014338301
H         0.73023752507864    1.93098589411518   -4.82364620907863
H         2.14362731111547   -0.43841625375152   -5.19863179093148
H         1.83656400453861   -2.17131990133113   -2.35674168878187
H         0.77135095096724   -0.85724054283233   -1.60123895127884
H         5.68333829231872   -1.65053977136011   -0.60935681865033
