32
 energy: -49.292720772244 gnorm: 0.118194139550 xtb: 6.4.1 (79825abcba525fcdf90b791dcacef51065a7a4e7)
C         1.92725802320388   -1.15177120750289    1.25806050317136
C         2.26342605991653   -0.09340086222469    0.20663524511733
O         1.03488235586485    0.61071144015512   -0.02847903166276
C         1.00193615865662    1.67247820336339   -0.87193395138403
N        -0.01390877493179    2.44833092789183   -0.72694702900467
C         2.02278295275890    1.91628754375331   -2.04084016613853
C         3.46582782675471    2.32134404104886   -1.63159610915519
C         1.45376399339736    2.92829515539312   -3.06409693532989
C         1.67777875106849    1.85303809147554   -4.14281735199198
N         2.10382639985992    0.89542462112803   -3.13403762705289
C         1.86518668785620   -0.48427891180161   -3.26038416748359
N         1.63472426311357   -1.13260711329156   -4.35851370606302
C         1.97575677814710   -1.37763011832807   -2.03929752685056
C         2.88723063348307   -0.78285366018229   -1.01691627950746
N         4.13273520941194   -0.66325233174773   -1.36896785873620
O         4.99991765321666   -0.14728152171252   -0.41550587617809
H         2.81039958014367   -1.73823549494652    1.53535239115352
H         1.16761276058448   -1.86496149042726    0.92550309859737
H         1.53286132369150   -0.79239400850830    2.21487247978485
H         2.92770357922680    0.60681660205993    0.72576983275267
H        -0.58496729335920    2.14295926186961    0.07327475310846
H         4.02689126594424    1.72655680515570   -0.89910408232112
H         3.40935527215571    3.32704496919238   -1.19817327525785
H         4.00736637300143    2.49534566211866   -2.56525279607189
H         2.10846473202434    3.80130480510631   -3.10701115883120
H         0.44749974668476    3.28620011330704   -2.80987078635000
H         2.51963360858026    2.08557044511808   -4.80938398762134
H         0.80225584921759    1.50307858267555   -4.69071849728348
H         1.54281150858247   -0.62475808030580   -5.23529715802758
H         2.44832526819017   -2.23421417167634   -2.54066354003557
H         0.99468091779970   -1.59126039195439   -1.60439411199712
H         5.84665371947356   -0.51895416896143   -0.72951352127135
