32
 energy: -49.285270842547 gnorm: 0.118614639634 xtb: 6.4.1 (79825abcba525fcdf90b791dcacef51065a7a4e7)
C         1.99819917822965   -1.16393938242818    1.06521677942829
C         2.40902737102789   -0.00987699502315    0.14978681186786
O         1.19612140145535    0.71623100988302   -0.09920871470702
C         1.07310427734704    1.84100980051654   -0.84726607281777
N         0.00898356960389    2.56113721998630   -0.91029974309357
C         1.96971718954967    2.00780665364234   -2.12639745575152
C         3.49638280466203    2.28638454035540   -2.05145434918100
C         1.36896732123632    3.00610094836396   -3.14497711496592
C         0.99707041547218    1.78319185898930   -4.00298886061965
N         1.69964159026260    0.89399003222180   -3.09090851919208
C         1.93053940393511   -0.48206454556095   -3.26311253237486
N         1.61726871130593   -1.09929911824954   -4.35865524696869
C         2.32197360834206   -1.34582186249088   -2.07902754189250
C         3.14192066411637   -0.71726096664733   -1.00087864130685
N         4.43120382437200   -0.85713194656642   -0.91306360288420
O         4.98826332237643   -0.49964797464720    0.30726870642203
H         2.91119740946196   -1.60058255251829    1.48539190610786
H         1.43082356031597   -1.93471493577903    0.53579663441373
H         1.29067572655868   -0.79151510152223    1.81414976202704
H         3.14150244039075    0.59125066926128    0.70041885568399
H        -0.65190297674334    2.38422921796457   -0.14111373051474
H         3.59496392390280    3.33715649257908   -1.74934725660540
H         4.00925943457290    2.35361037058376   -3.01836546697823
H         4.11663719623123    1.67738096296828   -1.38838987259404
H         2.11582992826733    3.54719529130518   -3.72981358653740
H         0.58715039916965    3.65953433784628   -2.73622078287442
H         1.48936361244578    1.72046033671215   -4.98320013474563
H        -0.06791611632098    1.55687619849560   -4.06457282781819
H         1.16392866564757   -0.51860718054643   -5.06035853153616
H         2.80966717463053   -2.26112219129746   -2.44345226490139
H         1.37611369797712   -1.71273375876735   -1.66913314986587
H         5.94477496190181   -0.45183545915343    0.11621172500749
