32
 energy: -49.293687883440 gnorm: 0.108773371538 xtb: 6.4.1 (79825abcba525fcdf90b791dcacef51065a7a4e7)
C         2.16657269359930   -0.98311716617997    1.28992518911820
C         2.44907739410902    0.08317943211941    0.23074887484425
O         1.25753635605041    0.84874533030201   -0.00272761937173
C         0.99452988792635    1.75122800871736   -0.98058390328785
N        -0.05260407538285    2.47084334351968   -0.77915445944941
C         1.89407159558221    2.05446421644323   -2.23229690123989
C         3.34164900989317    2.47887344172672   -1.86037429834870
C         1.19915294799297    2.96175891619833   -3.27580099149228
C         1.28693488015459    1.80469061199791   -4.28747552975203
N         1.98681593435736    1.00330801985609   -3.29544269871759
C         1.97683532013259   -0.40247772183327   -3.28275255381213
N         1.71878379232971   -1.07473362797221   -4.36016254166954
C         2.12222789688641   -1.20493830916909   -2.00358380331448
C         3.05102953712808   -0.68505382326626   -0.95627551493199
N         4.23861519602414   -1.21316440847800   -0.93996778000474
O         5.02717912553588   -0.90975186636681    0.16158965192525
H         3.15603375671747   -1.33555865042685    1.60221026310315
H         1.63651264574340   -1.84827231228989    0.88146631588652
H         1.52694368239733   -0.62332267881543    2.10332087515254
H         3.25591570685635    0.69267116139385    0.65336170165432
H        -0.59191144489942    2.22358209426054    0.06210888684407
H         3.79017232923864    1.50315082162299   -1.63255676240434
H         3.40790072541492    3.11707410341336   -0.97111084995607
H         3.79982105396221    2.99230004656430   -2.70991939375315
H         1.78563138510291    3.82312502726544   -3.60246901195423
H         0.22094364584930    3.39128176350194   -3.02299413548260
H         1.82088857080608    2.10510311570119   -5.19947758831993
H         0.41618619935265    1.20887104681545   -4.56316277575413
H         1.51071880330833   -0.56589165283304   -5.21625635873427
H         2.39771640043492   -2.22301324410048   -2.31351056052650
H         1.07061796727778   -1.26013739190825   -1.70633250051567
H         5.86071468298968   -1.40097547462049    0.02884491943961
