32
 energy: -49.291298690750 gnorm: 0.118046049056 xtb: 6.4.1 (79825abcba525fcdf90b791dcacef51065a7a4e7)
C         2.24295475649395   -0.79527984809056    1.46260139889196
C         2.38982912473237    0.12537096271454    0.25037954823078
O         1.10217858970142    0.69859101847466   -0.02118510845516
C         0.91451558172877    1.66675461241780   -0.95247034084640
N        -0.21591761756666    2.27968445029759   -0.98917730401640
C         1.92351099311090    1.95545267020224   -2.12144196083015
C         3.39467737072484    2.32252426358108   -1.78253503568646
C         1.32786066197220    2.98329693021186   -3.11327524801164
C         1.36169519992597    1.88998360198437   -4.19656620180089
N         1.71285316607610    0.91364901051823   -3.17694101961168
C         1.91042999169205   -0.47661054423236   -3.24502884169320
N         2.00327680093524   -1.13125780579642   -4.35954545736404
C         1.97167181899005   -1.22487450626081   -1.92680838519658
C         2.94539042912647   -0.68153672669382   -0.93359986724808
N         4.17374646481400   -1.05767144021231   -1.13156592414495
O         5.18880804062371   -0.78409843006926   -0.22485272890236
H         3.26234508253255   -1.16379545700200    1.62325560239763
H         1.54627040732730   -1.63217830056959    1.35999715585360
H         1.79123700430999   -0.28036467893584    2.31758872522788
H         3.08455097063063    0.96419526717420    0.37205612313067
H        -0.84484189104126    1.93039787374815   -0.25285690234886
H         3.42815606720686    3.37785504826038   -1.48209414363309
H         3.94880075550990    2.22787933627533   -2.72405958232266
H         3.88935292021205    1.62359175240954   -1.10279625693419
H         1.90768420229849    3.88563099336276   -3.31874649554508
H         0.28643910970909    3.22063683256388   -2.85949275880458
H         2.13079555205490    1.90581247864825   -4.98099979643366
H         0.41143684134320    1.88327935904010   -4.73151644835926
H         1.88401175293053   -0.67746547533712   -5.26229469220083
H         2.38956052384472   -2.19702618907001   -2.22465940533392
H         1.00230876642620   -1.17266903921514   -1.42193357223002
H         5.98266412246963   -1.08018593835297   -0.71047401326312
