32
 energy: -49.292937229828 gnorm: 0.116175592647 xtb: 6.4.1 (79825abcba525fcdf90b791dcacef51065a7a4e7)
C         2.17382133997096   -0.84748772783584    1.48436824217582
C         2.49980448445334    0.02716509185190    0.27301807190541
O         1.40127039059635    0.93689758741270    0.11182842309194
C         0.99604707805978    1.67123224600137   -0.95419080269933
N        -0.20397105943090    2.13438823165957   -0.97296843226189
C         1.95517753463130    1.97516765320433   -2.16067535722224
C         3.35600646142749    2.47843439280853   -1.71533180020774
C         1.24265405944447    2.90508057509480   -3.17189672908066
C         1.53147370900594    1.86387970092505   -4.26847415558790
N         1.87682393588723    0.91778908047221   -3.21879685728560
C         1.88573923750442   -0.48650693627409   -3.28488320656097
N         1.95852858737159   -1.21711406023751   -4.35270613068985
C         1.80457653971526   -1.15435151387323   -1.92519540135503
C         2.89507696344824   -0.76845727696895   -0.98089593316692
N         4.10236807359881   -1.15342633024798   -1.27033233789318
O         5.02227822022491   -0.80716015174198   -0.28993136087262
H         3.06383108125430   -1.37876381334638    1.83989396677950
H         1.33118919897066   -1.54098908480756    1.41141160332312
H         1.82397633999882   -0.14376437322127    2.24763215840189
H         3.36515274779073    0.62709057066954    0.57687928826499
H        -0.79496966942528    1.88291022128337   -0.16848472293791
H         3.74177485960783    1.73241201791057   -1.00840748854076
H         3.25381550269454    3.47218922271333   -1.26312918704380
H         4.04536283350128    2.47670098563303   -2.56388359885754
H         1.77458534153433    3.84663244099085   -3.32404708352711
H         0.17118998404287    3.06380349189861   -2.99282579371924
H         2.38248446375965    2.02172308255765   -4.94520758448672
H         0.70303097060754    1.65199369116734   -4.94522714941962
H         1.95734720659909   -0.65007380795020   -5.19743790807426
H         1.93911455063425   -2.21056521480188   -2.19857651757261
H         0.90749593832129   -0.89535777851675   -1.35470670243795
H         5.82238362352673   -0.56802222252398   -0.79623928874433
