32
 energy: -49.281542369210 gnorm: 0.123092842070 xtb: 6.4.1 (79825abcba525fcdf90b791dcacef51065a7a4e7)
C         2.02179006642331   -0.68421134669084    1.47966811635781
C         2.41244621910788    0.18301813927051    0.28219052074463
O         1.30397530086270    1.05803783257445    0.02527571305296
C         0.95353032230282    1.81400727823466   -1.04502742859852
N         0.04777362137981    2.72017850034815   -0.92940690799056
C         1.88654814114453    1.97040438647269   -2.29919273919865
C         3.28252555788409    2.45535914195347   -1.81961382858533
C         1.10102317092890    2.68562701247825   -3.42453868784599
C         1.54514230028448    1.52086879613983   -4.32791823239558
N         2.20102265468567    0.83560141113771   -3.22501012964257
C         2.05567055805627   -0.56184928137347   -3.17502462311224
N         2.10405375467137   -1.36992780462428   -4.18695299987136
C         1.77898511186462   -1.18896366063027   -1.82168525982687
C         2.82439940234443   -0.79163085479513   -0.83221942675716
N         3.99944191249514   -1.31365931327197   -1.02271304158589
O         5.05017323241519   -0.81953349257284   -0.26171081899922
H         2.88632265086419   -1.21316086170097    1.89628062332629
H         1.12091274521238   -1.27534063117137    1.29183321140837
H         1.78058381828900    0.05271119412638    2.25358969194257
H         3.32991653458728    0.72599533428004    0.53614684486181
H        -0.28520993637962    2.85530365259078    0.03525765892894
H         3.59134800751730    3.31676288472886   -2.42601378694053
H         4.12639831728980    1.75861855935166   -1.88968650283431
H         3.31099760468087    2.82236862650018   -0.79017284033604
H         1.41866812372650    3.69928486185707   -3.67795529730868
H         0.02311991237830    2.75824823160548   -3.22923034309444
H         2.26845751084061    1.79821101217585   -5.10701924141855
H         0.62986393402533    1.05586149630584   -4.69567005329704
H         2.33694229460738   -1.03163552504052   -5.11777472206621
H         1.89114901693806   -2.27001353664953   -1.98653525265516
H         0.75218534004170   -1.01586777076519   -1.48551751181522
H         5.85399757073693   -0.96646270795533   -0.79648325798958
