32
 energy: -49.285745740392 gnorm: 0.129461612197 xtb: 6.4.1 (79825abcba525fcdf90b791dcacef51065a7a4e7)
C         1.94916837287623   -1.12779486720347    1.24197556964185
C         2.34687406347822    0.00818572852576    0.29856152588663
O         1.20992239119426    0.84871279847675    0.05111942834246
C         0.96367112921417    1.68334959323390   -0.98935740118332
N        -0.19118645094180    2.20789780403250   -1.20397970439448
C         2.00398970329440    1.99314448993852   -2.12499700774269
C         3.49927277695283    2.24334639902507   -1.78520662423101
C         1.45029375044176    3.01651235420395   -3.14535743760761
C         1.27985919638729    1.87602161626282   -4.16527461320103
N         1.90882000534690    0.97096516153738   -3.21582330136323
C         1.89779057492511   -0.43388449864603   -3.26845389807590
N         1.54439404216125   -0.97619474415385   -4.39110315463326
C         2.20654094359131   -1.24137216050587   -2.02186192368195
C         3.01842379937763   -0.65068788658686   -0.91653604325188
N         4.30001910267954   -0.83490472041619   -1.03100895235519
O         5.12905054112126   -0.58699503168804    0.05461007235273
H         2.89742684195818   -1.66267317426652    1.36639917916920
H         1.18588372770874   -1.81216574283614    0.86075544750121
H         1.59521437335437   -0.77034155047516    2.21518344840982
H         3.20752554182207    0.54038599601285    0.71940797680296
H        -0.84943002554303    1.96082487773163   -0.45205886311491
H         4.24466938727103    1.60724675217023   -2.28004977561403
H         3.65900108502423    2.25251195196355   -0.70036483225560
H         3.78833070180481    3.24319384710496   -2.11987954241933
H         2.15215708244666    3.78969460068986   -3.46504104761824
H         0.45341995556686    3.29126386737995   -2.77650939835621
H         1.88289664712830    1.98090640682264   -5.07765994137778
H         0.22873849568832    1.58751141760684   -4.19866344720305
H         1.30854190914452   -0.33017066314611   -5.14085943291320
H         2.59141115912750   -2.22108151972283   -2.33883125578708
H         1.23626071544308   -1.31720967021747   -1.52176826547863
H         6.01799501857824   -0.78966814635570   -0.29525368192920
