32
 energy: -49.286356904172 gnorm: 0.121597685325 xtb: 6.4.1 (79825abcba525fcdf90b791dcacef51065a7a4e7)
C         2.04285697449037   -1.05758657103185    1.29908165392455
C         2.40354879084889    0.04292280923185    0.30036630483001
O         1.19078339155284    0.76363232380555    0.03550710066570
C         1.01095951188576    1.69948201991512   -0.92973850452810
N        -0.03813164719988    2.44052194412320   -1.00169126594673
C         2.03403158216670    1.87348176828931   -2.10912844550186
C         3.43083614769598    2.33821619262215   -1.61224925648413
C         1.53009780187218    2.89261027499977   -3.15909238104386
C         1.75072404359703    1.84295253145663   -4.26342058838644
N         1.82761078211042    0.86061627828151   -3.19324275304826
C         1.71736993953084   -0.54089432354647   -3.20369322882107
N         1.44010025513431   -1.34341415000397   -4.18267960950867
C         1.96358257313758   -1.29623604891239   -1.91133378033330
C         2.92670563450445   -0.68260778218823   -0.94922080503825
N         4.16297719665984   -0.77905558122793   -1.33890901774589
O         5.08095957365511   -0.36502645981568   -0.38328918319684
H         2.93493001120796   -1.68819443518329    1.38457777147795
H         1.28152007500826   -1.73629660115271    0.90409487209422
H         1.69730455981696   -0.68710546301538    2.27043492088712
H         3.04412061882653    0.73399396615845    0.85997173541291
H        -0.67463505818645    2.37383051207668   -0.19538471681105
H         4.14957755116100    1.64187660653545   -1.16099479057702
H         3.16688827128953    3.08627367469959   -0.85513606086051
H         3.84133787687594    2.86276974371174   -2.47919059302862
H         1.91531483237606    3.91440017594151   -3.14590992705945
H         0.45797147997743    2.92877749517465   -2.92557209796537
H         2.71867504590150    1.93940860189212   -4.77417401172745
H         0.92849474841435    1.65206429898807   -4.95386127572598
H         1.20842463260467   -0.90933994540457   -5.07319283892493
H         2.36128953407894   -2.24693701457885   -2.29398498993131
H         0.96159154113648   -1.37799615251311   -1.47934074128060
H         5.88463720560778   -0.25855610662749   -0.92777945122237
