32
 energy: -49.291667064126 gnorm: 0.115892717686 xtb: 6.4.1 (79825abcba525fcdf90b791dcacef51065a7a4e7)
C         0.94909707803916   -0.82714682683762    0.41031029518247
C         1.93053133825304    0.29827556400213    0.08036628168925
O         1.22181508668361    1.08119066783338   -0.89181565548073
C         1.94960257931743    2.10008783910603   -1.41337512197515
N         2.61218383997244    2.94271591786211   -0.70212720546143
C         2.04894132697419    1.93992436067749   -2.97298804204961
C         3.37410543023558    2.50648042182259   -3.55340541867193
C         0.70369533188925    2.41071717397244   -3.57603343586144
C         0.43061742548291    0.92634029758585   -3.87943390732815
N         1.78123965939537    0.55766705697144   -3.48436897049099
C         2.27025456192504   -0.58339165606267   -2.82456320134970
N         1.80351425387265   -1.79226414366321   -2.83512995002457
C         3.44975725067448   -0.31504491686043   -1.90907528489227
C         3.21885294215416   -0.36251818354753   -0.43454603724923
N         4.07196717577889   -1.01093668214746    0.30116856788668
O         3.79431986700121   -0.99755618337937    1.66133545100975
H         0.03648687323785   -0.39165074508379    0.83251396659513
H         1.40667035137516   -1.45473071002278    1.18041477098991
H         0.69337799597129   -1.40699204024544   -0.48332115505595
H         2.13292950436873    0.85003475751110    1.00538877495768
H         2.37229728507664    2.84652945056497    0.29432509797923
H         4.28554747927705    2.15699067345739   -3.05117148250062
H         3.34207065103459    3.59484066740277   -3.42331079387017
H         3.56619913858634    2.32373622444004   -4.61404670170777
H         0.87823811184643    3.08800123761097   -4.41474772016340
H        -0.04551098658887    2.87927857588971   -2.92454688186716
H         0.13099816580729    0.58042342545475   -4.87826912261404
H        -0.23999711730019    0.48013465160822   -3.14432552663040
H         0.98738928939973   -1.97348128056370   -3.41496458758211
H         3.81382667882090    0.71450873185184   -2.03516185875135
H         4.25647610634805   -0.98845411105873   -2.21405635472698
H         4.66772488226350   -1.07113603577438    2.09197800258968
