32
 energy: -49.298015528713 gnorm: 0.128343412203 xtb: 6.4.1 (79825abcba525fcdf90b791dcacef51065a7a4e7)
C         0.92195015183383   -0.60576369839809    0.76740183964690
C         1.96537007174852    0.29446883943311    0.10444780641701
O         1.27694334528448    0.98075700495543   -0.95170071441488
C         2.01332770021348    2.00240253733912   -1.45551499209070
N         2.84047993667676    2.76162944601363   -0.82757927129013
C         1.97849410577296    1.99897820792295   -3.02608427287474
C         3.16842451370376    2.83917852980891   -3.56650912751597
C         0.52692859452498    2.19263530498908   -3.52653495245745
C         0.53358106604909    0.74055854836324   -4.03783421489275
N         1.89670525708774    0.59811607223619   -3.55020805703003
C         2.33849350656399   -0.47735891161939   -2.75984679535805
N         1.81490972370861   -1.63742277452835   -3.00365557664824
C         3.57359723014894   -0.35538693016099   -1.88749577311939
C         3.16161719691532   -0.48893589777320   -0.45842469774245
N         3.97847159485754   -1.13417774818063    0.31999567276294
O         3.68512580269333   -1.03887149357334    1.67357831824607
H         0.11107846739619    0.05701366286182    1.08986647483366
H         1.35332753919866   -1.20434659827088    1.57480990991701
H         0.53701353257771   -1.34453564607021    0.05590363536270
H         2.35563209239631    0.96438515466085    0.87902996392649
H         2.75232898823298    2.82660511646895    0.19600372661962
H         4.08277975224572    2.26637500434848   -3.36412523067411
H         3.25264106981779    3.72515198862155   -2.92585519667033
H         3.19945828622027    3.05857757383684   -4.63709603276722
H         0.45717470303598    2.96897309753856   -4.29142354264135
H        -0.22253214636793    2.42728359966978   -2.75936913080467
H         0.46161138110498    0.67094460764243   -5.13194400585070
H        -0.20504344181713    0.08764078420341   -3.57163693948751
H         1.01153694019539   -1.56802204714990   -3.62404539768928
H         4.00588425575575    0.65188113340732   -1.97094665512085
H         4.39007899895983   -1.06647370490594   -2.04561540947853
H         4.47315412743045   -1.48591634336007    2.03808563619438
