32
 energy: -49.273863851259 gnorm: 0.128530358944 xtb: 6.4.1 (79825abcba525fcdf90b791dcacef51065a7a4e7)
C         0.73904922961720   -1.41825828103154    0.11588243230819
C         1.67149873786532   -0.20707211590647    0.06878946412824
O         1.31630835137967    0.82998305465070   -0.85788676288148
C         2.14913891495523    1.80591498854774   -1.29811444390329
N         2.85895006539054    2.61636088150734   -0.59508161714386
C         2.18418506036836    1.96016462650977   -2.86108973392694
C         3.51437169601949    2.69396819710586   -3.18676716658426
C         0.81270257474828    2.37209008127690   -3.44790279673203
C         0.80049704867180    0.99855564413114   -4.14306628142656
N         1.98735030769771    0.58143618653864   -3.41260930487135
C         1.95088739015293   -0.59794486051504   -2.64826317148304
N         0.95645480890637   -1.42373246842176   -2.74051029361114
C         3.16674452916517   -1.02169639070361   -1.84609066362749
C         3.08803917350023   -0.50437991790039   -0.44752135052937
N         4.17805523917049   -0.08123529708377    0.12022859557151
O         4.23709263545085    0.35686426857030    1.43624696661469
H         0.94826865026914   -2.20229451234583   -0.62051730205728
H        -0.24760419466244   -1.02936322911589   -0.15164585436989
H         0.78366396079027   -1.82965818800050    1.13025392303371
H         1.72597836147735    0.26130925077523    1.05809259470939
H         2.78946255808483    2.51005290379485    0.42647830610315
H         4.23448369459651    1.87463357217492   -3.31020986603421
H         3.83786430530184    3.23557682994452   -2.28983267969206
H         3.53638538773535    3.33203665044233   -4.07425767289036
H         0.74048819103351    3.27389282239259   -4.05958687807000
H         0.02908287421684    2.46942821663186   -2.68517081923675
H         1.08397830518879    1.15046957781704   -5.19361971193115
H         0.00301383615033    0.25492133157609   -4.15843526252164
H         0.18644663904685   -0.98329095543742   -3.23871357907219
H         4.08799058284827   -0.67081589527667   -2.33252015797926
H         3.06549115915163   -2.10948430455361   -1.90735988731278
H         5.08524873220360    0.83404611711364    1.51768429816563
