32
 energy: -49.282985589401 gnorm: 0.121072980827 xtb: 6.4.1 (79825abcba525fcdf90b791dcacef51065a7a4e7)
C         2.26647518168544   -0.88100938177490    1.40335768400792
C         2.53675071002474   -0.01309417759888    0.17359097942906
O         1.34229383580277    0.77166848960753    0.04020126027567
C         0.94075711865319    1.65316870717598   -0.90931227533597
N        -0.23048635121737    2.18457789533284   -0.93581890591232
C         1.95801683034526    1.94895659962188   -2.06931449625121
C         3.40772709567128    2.43413824846918   -1.79206209152048
C         1.33055417060278    2.99728325867415   -3.01920829918392
C         1.56935189418398    1.95891904506401   -4.13041193048129
N         1.87334773028301    0.92197867027322   -3.15649310648761
C         1.81748836251504   -0.47692644950125   -3.28470542181099
N         1.72072135307945   -1.06699024224862   -4.43439743939167
C         1.86024233270417   -1.33187574318892   -2.03227238844595
C         2.89339236411279   -0.83126791471171   -1.07739027928446
N         4.16683592499523   -1.05004918423894   -1.21882116869387
O         4.94251120576194   -0.65442654049476   -0.13755727678472
H         3.21363879190441   -0.98022782739215    1.94539731214755
H         1.86217652208914   -1.84893827451363    1.09359650820951
H         1.57974144570660   -0.38997927989574    2.10155257330937
H         3.43526148047099    0.57776955755851    0.38484504671058
H        -0.87873931480464    1.90084748848995   -0.18816943328933
H         3.19858406637351    3.48422618806681   -1.54981605326813
H         4.09083483416682    2.30474564098474   -2.64005986563664
H         3.82218114024583    1.98655295653835   -0.88478560730761
H         1.90067504686892    3.90223130652909   -3.23977971740434
H         0.25435953865685    3.18207749649687   -2.90540657217174
H         2.29808074058902    2.25076701196245   -4.89909977526259
H         0.70956383547898    1.60620850132772   -4.70099710615301
H         1.82752995145131   -0.45488327048335   -5.24001819289442
H         1.99384217095177   -2.35602979845598   -2.40868258971501
H         0.86136223754191   -1.38714563428263   -1.58902019226687
H         5.86384381646576   -0.80027468160939   -0.42665563966444
