32
 energy: -49.293654501533 gnorm: 0.119616822871 xtb: 6.4.1 (79825abcba525fcdf90b791dcacef51065a7a4e7)
C         2.37652301981993   -0.80016027194314    1.56143677336173
C         2.41869019732993    0.07788065680980    0.31007037598467
O         1.19537764972359    0.79151580571894    0.07639588878007
C         0.92760220075907    1.58167993698713   -0.99308401269142
N        -0.16490581337120    2.25605551018243   -0.91213081411977
C         1.89465771762862    1.97017449899141   -2.16857902663858
C         3.22627391949114    2.53642525950130   -1.60281550716074
C         1.36670416755974    2.89967737659636   -3.28763480026033
C         1.72511703606020    1.76081420837386   -4.25950361930402
N         2.18048818454798    0.90101681468287   -3.17804059654591
C         1.90679655802318   -0.47735753586210   -3.21892199033364
N         1.78364961092272   -1.08202149782848   -4.35846014947093
C         1.72726412234677   -1.21455319375751   -1.90527614934180
C         2.75992521840600   -0.78130606601957   -0.91749325955168
N         3.94127965100633   -1.19196070370453   -1.27145783431103
O         4.97591010013682   -0.75810193521904   -0.45376142100933
H         3.43791490707671   -0.97470253253506    1.77060757637279
H         1.91187394510234   -1.78571978162881    1.46620327091981
H         1.91704119371840   -0.19118483324670    2.34770342952821
H         3.27018497192148    0.75386592975835    0.44816598515410
H        -0.77440377343841    1.95742431633298   -0.13815004401047
H         4.00228363625926    1.76009293953731   -1.58779324086040
H         3.01683817830131    2.91689210219512   -0.59590909978161
H         3.67777635995177    3.29968816581705   -2.24221417114010
H         1.91979677132348    3.83216747234208   -3.41867418616035
H         0.29791937156263    3.14936247774327   -3.31315007685668
H         2.54364113389288    2.10174214363237   -4.90826276068202
H         0.99041763769476    1.27683919832125   -4.90385807217256
H         1.83581748074678   -0.50939834333280   -5.19779861498835
H         1.91517477373088   -2.26695840413975   -2.16131903342441
H         0.71042495580487   -1.02461704968976   -1.54855343971935
H         5.83288947799455   -0.89477663400232   -0.90165615788050
