32
 energy: -49.285293429482 gnorm: 0.121360560184 xtb: 6.4.1 (79825abcba525fcdf90b791dcacef51065a7a4e7)
C         1.98928302754910   -1.06439569168571    1.29318232679639
C         2.33229427784327   -0.02187106442128    0.22822341288097
O         1.19489812317703    0.83448055544329    0.04556423729751
C         1.04470240651355    1.78927544282940   -0.90609656986601
N        -0.12177352332672    2.32349470321581   -1.00018846240925
C         2.07191580078621    1.89920337333579   -2.08959199768534
C         3.50732103520419    2.28972691050182   -1.64122480205687
C         1.55155409534221    2.88240463607649   -3.16548017685285
C         1.48730598478172    1.71441370384921   -4.16631356141432
N         1.93581061366205    0.81522409411674   -3.11442082650749
C         1.81251324192264   -0.58280869092063   -3.19686043288823
N         1.44466200532479   -1.09554777730032   -4.32872392632761
C         1.94369489463470   -1.34896898697864   -1.89411545667610
C         2.94094279846328   -0.63402002341392   -1.04314445931348
N         4.20861726646404   -0.80005607063211   -1.27757976376649
O         5.06470556253619   -0.13185029000529   -0.41274747729718
H         2.79739640785972   -1.61369455381622    1.78915982821580
H         1.39011873343513   -1.86728641575891    0.85424683476175
H         1.36226164581875   -0.60989933215095    2.06808047102479
H         3.08139579097120    0.60106437553528    0.73008813605523
H        -0.72437785968472    1.96181421608177   -0.24801173572067
H         4.11708255584442    1.56873472087560   -1.08134110203122
H         3.32339496267870    3.19686663564827   -1.05322175887441
H         4.19140955343254    2.49410289948964   -2.46917934029877
H         2.33564828987121    3.59523290039062   -3.42947391888239
H         0.59521010550667    3.32156322235344   -2.85268545383911
H         2.14535364468250    1.75844108813408   -5.04502673243387
H         0.47312679077562    1.59126492477947   -4.54773538836625
H         1.61023313539532   -0.39872969449327   -5.05131550215822
H         2.43479859717579   -2.30690425954719   -2.11683109855101
H         0.95903748592268   -1.55062636021287   -1.46159632194312
H         5.96002694239209   -0.38604591045777   -0.70853039826832
