32
 energy: -49.285254869420 gnorm: 0.126396736289 xtb: 6.4.1 (79825abcba525fcdf90b791dcacef51065a7a4e7)
C         2.36085080316489   -0.65774048450355    1.52839684164962
C         2.47322342271681    0.03745858618264    0.17092770761448
O         1.22498197596253    0.74122873117319    0.08742112377437
C         0.89807107174619    1.58424459693385   -0.92366928695176
N        -0.26584955409887    2.12896548342970   -0.86469876829727
C         1.85074507908417    2.00065731759831   -2.10134734208244
C         3.32049285488585    2.30779361678686   -1.70204951534732
C         1.30393516976201    2.96184371417767   -3.18399041295961
C         1.57742715591583    1.94615059612277   -4.30807569642109
N         1.93031067872987    1.02716709326263   -3.23703918052133
C         1.90389181346958   -0.37487650633909   -3.33738849939636
N         1.92942679635578   -1.08894607926009   -4.41849139581657
C         1.82021535601416   -1.16069293177894   -2.04245781083338
C         2.86892662956984   -0.83522246098202   -1.03048911334175
N         4.12697265410433   -1.13799611779061   -1.15367488556764
O         5.02352237189692   -0.86340200029365   -0.12989869614894
H         3.16861305606278   -1.39712634230210    1.56838257466739
H         1.40159533335293   -1.17888873570848    1.59569599784462
H         2.33623232536300    0.14607525060060    2.27234850905862
H         3.33070104104189    0.67714068521139    0.40885370283823
H        -0.78967657067202    1.84111271068340   -0.02656952820058
H         3.87523150955256    1.37281212993521   -1.54978899753620
H         3.47217446814087    3.00226157497856   -0.86707299215996
H         3.75762443200374    2.72945558586649   -2.61109986863934
H         1.74812960123361    3.95657781825909   -3.26025244030375
H         0.21403635307429    3.08890707171930   -3.14835197547862
H         2.39890226949923    2.21843852023220   -4.98493601765549
H         0.80734215195338    1.42573838205536   -4.87846844667320
H         1.91237191431116   -0.57427104474378   -5.29594598594007
H         1.67991505155218   -2.21813397908049   -2.30808787548691
H         0.88269558044277   -0.86691285252766   -1.56075390374797
H         5.92485420264922   -1.13128388516576   -0.39360980361128
