32
 energy: -49.292092580054 gnorm: 0.112249281816 xtb: 6.4.1 (79825abcba525fcdf90b791dcacef51065a7a4e7)
C         2.02570770563272   -0.94926858610327    1.28874814381685
C         2.35618445645374    0.02842062157880    0.16022665915065
O         1.10017123290984    0.63171310414030   -0.18450722789302
C         0.95756626610757    1.72624358810802   -0.97287082788642
N         0.12277687124880    2.63768035818220   -0.61605256626525
C         1.93688321459154    1.92461203371577   -2.18510067543064
C         3.38016163268337    2.38948473804802   -1.84632235665513
C         1.31262462534721    2.87421591449005   -3.23560059299606
C         1.56626448559083    1.76538955057531   -4.27298625804559
N         1.95889013081762    0.84178813807522   -3.21990401133809
C         1.78026491397627   -0.55240327198028   -3.24849649309405
N         1.28084195745542   -1.21757901229534   -4.24220108061865
C         2.18522747307291   -1.38533771075153   -2.04700565349549
C         3.02248716456897   -0.72457520550610   -1.00192377066669
N         4.29978357691527   -0.96420765250191   -0.97709233862085
O         5.11361953535887   -0.37916685954304   -0.01650953706436
H         2.84398760644736   -1.59790237523363    1.62110694310666
H         1.15202617323330   -1.50408620673621    0.93497742250982
H         1.63218752965640   -0.41469210596416    2.16027539361104
H         3.03591163833371    0.81095810503854    0.51614221692960
H        -0.43880465312265    2.29517442509473    0.17579998627613
H         3.96890304269649    1.48692907211647   -1.63683383232440
H         3.38656235467848    3.11994523811005   -1.02848047523534
H         3.91884830846567    2.82525651077599   -2.69200255185560
H         1.91173324120458    3.78010060823308   -3.34989110878247
H         0.30613604950303    3.28298265064413   -3.07690237045083
H         2.45881384039166    2.05765331490334   -4.84310862854978
H         0.67195793530291    1.44424484780387   -4.80804657770327
H         1.07372967447129   -0.56442432023190   -4.99426575606275
H         2.83282530917959   -2.16997016762179   -2.46341175441226
H         1.25218561830021   -1.72194483708738   -1.58503459621653
H         6.02050597666102   -0.68706543223769   -0.20745134509666
