32
 energy: -49.286829814009 gnorm: 0.127020132626 xtb: 6.4.1 (79825abcba525fcdf90b791dcacef51065a7a4e7)
C         1.95442732625347   -1.11254948928348    1.21558774883173
C         2.26483563620715   -0.06769045221827    0.14294238272480
O         1.04491878555025    0.49303575578148   -0.36475978893593
C         1.05363443626098    1.63712276384968   -1.09334698095188
N         0.13007286589593    2.53181550840597   -1.05502552477344
C         2.13420669644802    1.96282482607758   -2.18613915654734
C         3.49618980962584    2.40027002139269   -1.57986061310846
C         1.57154919211454    2.96977982511929   -3.21786323342945
C         1.23282817011842    1.80584947871658   -4.16682704703963
N         1.96240737020933    0.93294897018052   -3.26022042169905
C         1.78174755842227   -0.46096443831958   -3.23086693175266
N         1.08906109342320   -1.12206304329398   -4.10405932421965
C         2.44271042167837   -1.33476006419760   -2.18159863379533
C         3.08506163496740   -0.70076745613145   -0.99195780806280
N         4.36625809704858   -0.88252290215730   -0.86937308979208
O         4.98079909603868   -0.30985664113582    0.23593850920400
H         2.78800484937966   -1.82075288058624    1.14950723957520
H         1.00953364040480   -1.56191542781849    0.89693133329155
H         1.87753854729218   -0.62261947133614    2.19244320475334
H         2.79832529377872    0.78568461787942    0.57677370085998
H        -0.66500198459127    2.43036492558312   -0.40905466966834
H         4.17621636287357    2.89669440009430   -2.28430034502719
H         4.07552730569526    1.46997905585802   -1.54236865703972
H         3.36124372027013    2.87373423747030   -0.60370665322735
H         2.26613141443726    3.66716582093007   -3.69096876414130
H         0.73278704634164    3.62541795050770   -2.94970033902834
H         1.63223443045977    1.78894027596533   -5.19019926137796
H         0.16400534375038    1.59055147993247   -4.14509664348377
H         0.58047360469855   -0.51439500616762   -4.74217071042002
H         3.21214726377258   -1.95057492287361   -2.66859358756679
H         1.74449887680108   -2.05187942106939   -1.73941182656166
H         5.94424301959010   -0.46179516606947    0.18701190050925
