32
 energy: -49.292335976901 gnorm: 0.110457405270 xtb: 6.4.1 (79825abcba525fcdf90b791dcacef51065a7a4e7)
C         2.39482828703006   -0.60283145947860    1.56313277769574
C         2.54733255849803    0.10879565141522    0.21814909905762
O         1.26790846750906    0.69979528731681   -0.05418506560612
C         0.91561353642381    1.56532722288077   -1.03733971386955
N        -0.33374439760904    1.84102444857082   -1.17152388523560
C         1.86647806987467    2.11475563084795   -2.16068205214122
C         3.25419527514142    2.58658560060778   -1.64536911340688
C         1.23122286361627    3.05534746422156   -3.21269641101020
C         1.55185001485853    1.98017068417475   -4.26682696311593
N         2.07259385441638    1.09398818494643   -3.23741784991937
C         1.91213952484301   -0.30270329499083   -3.23865540965892
N         1.49362963972848   -0.99838724339048   -4.24870699036408
C         2.02102175372178   -1.14196129917299   -1.97962985260570
C         3.02612831056622   -0.78962355599004   -0.93300387422671
N         4.15217926576699   -1.42078712687287   -1.08521495858815
O         5.13202273179064   -1.17892703699762   -0.13194086703664
H         3.38857661638450   -0.93632554039187    1.88253239479912
H         1.76767694999080   -1.47262469515117    1.34764110607424
H         1.93975135483168    0.00719400885181    2.35114533917487
H         3.33287329349932    0.86816182879601    0.30393135333568
H        -1.02824154119366    1.32592511475958   -0.61289970422857
H         3.14981158387004    2.90781052981362   -0.60084663429926
H         3.77344057113492    3.37519160332914   -2.20301034912292
H         3.97127662386149    1.76675103884588   -1.73982016732503
H         1.74055700509102    3.98835360001413   -3.46309371810708
H         0.21239868419688    3.36812189415652   -2.94913603585014
H         2.33577469695379    2.31191654004986   -4.96145546310572
H         0.74429847171252    1.57885080234903   -4.88002393814975
H         1.24439662297879   -0.48686917076367   -5.09211672677821
H         2.18586886666027   -2.19887180858079   -2.23298866572290
H         1.02249409151640   -1.08616612325882   -1.53564998166132
H         5.88136190242448   -1.64510183113088   -0.55012167970748
