32
 energy: -49.287423048695 gnorm: 0.124628600238 xtb: 6.4.1 (79825abcba525fcdf90b791dcacef51065a7a4e7)
C         2.08113390517350   -0.73149710070303    1.44545187652387
C         2.49444404268159    0.21550772118787    0.31806178516812
O         1.39254177748187    1.12446050717181    0.17668031573640
C         1.09365035337327    1.80300046765450   -0.95914438563007
N         0.09309346894063    2.60785029850962   -0.88160552147047
C         1.88260050198561    1.96001599717314   -2.30852080436939
C         3.28235341454261    2.56620632491769   -2.01330045473994
C         1.11666862181075    2.68433357268515   -3.44152954245709
C         1.51347932318596    1.54226895370131   -4.39453939429991
N         1.96999845827038    0.78810351401573   -3.23738708752543
C         1.98591032355775   -0.61721914658459   -3.20120359662506
N         2.25084551687149   -1.37572588983708   -4.21796695789485
C         1.71385916255978   -1.12180766532918   -1.79666334871890
C         2.81057534997287   -0.69944923133021   -0.87545001686472
N         3.98957223842530   -1.22517577956274   -1.02745126390777
O         5.01250484039192   -0.88238902517513   -0.15370807951466
H         2.90409242962292   -1.24396892447662    1.95621802628993
H         1.29645497091109   -1.39615961626719    1.07289524118434
H         1.66342198839156   -0.02147952178419    2.16765800059177
H         3.40734884391153    0.76602927083056    0.57222844091371
H        -0.46974914804513    2.45761659479924   -0.03286963194645
H         3.30060103261321    3.57794161825120   -2.43893802606617
H         4.19583691685534    2.00949895925393   -2.25434744012048
H         3.27323994294177    2.75976503710133   -0.93733235828685
H         1.49416025237690    3.68052445571096   -3.68178841450218
H         0.03839375009989    2.75680300717259   -3.24822638639617
H         2.40134604690896    1.72025051607778   -5.01672684477465
H         0.71354801257688    1.14051096372222   -5.01736207209337
H         2.33673781557360   -0.79670029117337   -5.05010858855320
H         1.70027291191147   -2.21944589399548   -1.85523661533091
H         0.71670128150018   -0.89900681794903   -1.40509642321310
H         5.69233659383321   -1.56216525926036   -0.32527842073143
