32
 energy: -49.289550723369 gnorm: 0.128499701539 xtb: 6.4.1 (79825abcba525fcdf90b791dcacef51065a7a4e7)
C         2.03042949875345   -1.08522188320314    1.26435556291974
C         2.35585649196106   -0.02721689399882    0.20918991417749
O         1.13690131822835    0.69138367960821   -0.03192006020116
C         1.14778544628747    1.78191260257537   -0.83844257305049
N         0.18533798905543    2.61628057201113   -0.65834644633465
C         1.97017609765488    1.92361031640944   -2.16942280311670
C         3.46022482694620    2.21763206711136   -1.84195370835199
C         1.35092271914083    2.91806629548276   -3.18064927265273
C         1.18228461642077    1.76227869713596   -4.18350236270562
N         1.68531241693218    0.84683430583724   -3.17102950545170
C         1.95806318940129   -0.52707974127076   -3.29128520926753
N         2.12995191875938   -1.10953541767543   -4.43606926338613
C         1.93818562029995   -1.32472104470751   -2.00104183866823
C         2.91332792656647   -0.75446399774770   -1.02446032984182
N         4.19778866460605   -0.91316950040568   -1.14487475136518
O         4.92667417379660   -0.26104388112195   -0.15959351375355
H         2.94220804539383   -1.30411256348688    1.83138018207441
H         1.41170978287312   -1.88544877416269    0.84828036129310
H         1.43575505101185   -0.51666045159548    1.98774349082869
H         3.16024713975018    0.60925585879246    0.59510178716183
H        -0.31947752039209    2.34162569543057    0.19572649819335
H         3.33088630046891    3.12947061880508   -1.24451698706661
H         4.00428302172275    2.21645765235454   -2.79404517822219
H         3.78492475938327    1.46701163954162   -1.11642334703297
H         1.97468681332440    3.76764969623486   -3.46656348145022
H         0.38107525018917    3.32299258121692   -2.86327690323922
H         1.76944560951305    1.76903987305312   -5.11210250657892
H         0.17216481288475    1.53475314207088   -4.52569788832352
H         2.22777749265510   -0.50675114747832   -5.24981928696123
H         2.30616436543203   -2.34071613271016   -2.20295944494656
H         0.94516368152080   -1.29995272280063   -1.54214895002383
H         5.87301737917711   -0.43586630980803   -0.32565067168716
