32
 energy: -49.287455582251 gnorm: 0.135012163494 xtb: 6.4.1 (79825abcba525fcdf90b791dcacef51065a7a4e7)
C         2.08711951547635   -1.10337519073879    1.28039077670930
C         2.42857563526643   -0.01003622191787    0.26714380246560
O         1.16389331567292    0.61676655940273    0.00624270857839
C         0.94297026013011    1.59034811565447   -0.91200685165132
N        -0.15303360262203    2.25155402104660   -1.04042754068721
C         1.95072061921423    1.91807135828777   -2.07172647840585
C         3.35008655924523    2.38215254692609   -1.58148815576102
C         1.40583753667804    2.93488860230649   -3.10331821278714
C         1.61961610101602    1.86098556784137   -4.18545919358919
N         2.21792560062885    0.97183132138262   -3.20178893499179
C         1.83788877447107   -0.37965390734204   -3.27631354135503
N         1.40465025993882   -1.03328793300934   -4.30801011871508
C         2.07504545764978   -1.23293375234430   -2.04463788825298
C         2.98332980460813   -0.73517966835982   -0.96896720000674
N         4.24059499617967   -0.92154327616472   -1.24114227682072
O         5.13488908322998   -0.46454863445107   -0.28264605921117
H         3.02201844140440   -1.24363846315946    1.83452106547757
H         1.71098665787012   -1.99809767148263    0.77611754732001
H         1.37741562206406   -0.66671984802962    1.99161675050233
H         3.10497390084267    0.72409040448364    0.71948582943886
H        -0.80266551556689    2.21190624840322   -0.24285559190389
H         3.30376087583564    3.28488917524869   -0.95856831254055
H         3.94829817311414    2.52606717703632   -2.48918320828622
H         3.79867681289142    1.64856123204564   -0.90630970784861
H         1.92277431748634    3.85945995208898   -3.36895839908384
H         0.34153888428125    3.06198331843353   -2.86581044009909
H         2.26263055542436    2.10095890848956   -5.04339111682094
H         0.62678155890905    1.55016512311837   -4.51238105220307
H         1.04298119194420   -0.46752596194300   -5.07235081303766
H         2.26891576614103   -2.27862759708784   -2.32278131069055
H         1.07560059856944   -1.19273185248242   -1.60103614316793
H         6.04145267802256   -0.56008889586104   -0.63295710540660
