32
 energy: -49.288718769770 gnorm: 0.127713103075 xtb: 6.4.1 (79825abcba525fcdf90b791dcacef51065a7a4e7)
C         1.92502098920760   -1.10200016720424    1.31135817382683
C         2.32086512814004   -0.05165005543048    0.27274185363128
O         1.09926802856903    0.53760313629804   -0.19720887680562
C         1.03370658292333    1.61329870922797   -1.02087813313375
N         0.07938680045935    2.45386429388805   -0.82688626349541
C         2.02753493801660    1.95572965169968   -2.18833656349603
C         3.44886582792798    2.34647201668366   -1.69734889574392
C         1.49482897740048    2.94075112399166   -3.25649079087371
C         1.24249397075804    1.71965331424080   -4.15940013837575
N         2.08253306591988    0.92657021427529   -3.27535815314546
C         1.76307916587676   -0.44088268615216   -3.20815684017065
N         1.22382184479300   -1.11017976611941   -4.17798870808360
C         2.30058620002686   -1.30691259359029   -2.08457635511627
C         3.02017638989987   -0.61349406223866   -0.97499637870735
N         4.31239270114611   -0.68970495958106   -1.09287486389277
O         5.14909002920608   -0.36386602408271   -0.03406062897620
H         2.87787040458703   -1.45281113739344    1.72340163934756
H         1.27293098565638   -1.86985267948299    0.88535714466229
H         1.31861293260227   -0.66589798679606    2.11277819022253
H         2.96583534465326    0.70103767593262    0.74022921345790
H        -0.58395249099690    2.21473206376131   -0.07687870062134
H         3.49333230263904    3.29559028971705   -1.14752542172410
H         4.13358162851217    2.42995991328268   -2.54980000856010
H         3.93300064788190    1.60484174876218   -1.05637043518256
H         2.25930369284420    3.66670702524420   -3.54142406961055
H         0.54777085200296    3.34565552102769   -2.87645399327619
H         1.63684243010737    1.88346261137348   -5.17170334737288
H         0.20925212869741    1.39034811833946   -4.27419152957528
H         1.01106925618066   -0.48106887992778   -4.94874395828239
H         3.08395269838851   -1.87681221480614   -2.60416893414251
H         1.41684453022797   -1.91242262384558   -1.86176032503927
H         6.02598859911951   -0.39805177859707   -0.46252714506343
