32
 energy: -49.287293448193 gnorm: 0.126856066163 xtb: 6.4.1 (79825abcba525fcdf90b791dcacef51065a7a4e7)
C         1.77609183251185   -1.28677548213018    1.07031414877061
C         2.27523571923401   -0.11057369615573    0.23004243685329
O         1.09709457896693    0.63535910434257   -0.11045749558735
C         1.15477992739137    1.80234150232857   -0.79942398222092
N         0.35071342314901    2.76609492102218   -0.51734949363504
C         1.93683326049651    1.96966793663905   -2.15157316903044
C         3.44296009296557    2.18568094477253   -1.83716844232459
C         1.26315501017302    2.89917762433416   -3.18943913075527
C         1.30278936015388    1.71325716856008   -4.17026525901113
N         1.63355836400808    0.82392747541393   -3.06760427307022
C         1.88276565664085   -0.54537940246307   -3.26606985855993
N         1.69683575077111   -1.14824488259175   -4.39802133162558
C         2.28120537304314   -1.34572730825570   -2.04049093455997
C         3.06223218321270   -0.65071984304429   -0.97429735424037
N         4.36145133077988   -0.66746069017130   -1.01001530921819
O         5.16376366063613   -0.00279378983047   -0.09250027092388
H         2.58165653771286   -2.01615083127672    1.21119448138857
H         1.01649457980297   -1.77756817017966    0.45514727196215
H         1.27695724046638   -1.15122219846962    2.03606766334914
H         2.89735398372401    0.55274553827610    0.84163567937848
H        -0.34717211638486    2.70942356248138    0.23727538979318
H         3.68717866430289    3.25592196271081   -1.83009229021649
H         4.06700260399587    1.65579411096750   -2.56673663288442
H         3.71936484023695    1.85257457014475   -0.83322824095397
H         1.79585494267784    3.83447981684765   -3.37399569211109
H         0.26134285992437    3.20662931148149   -2.86211588922307
H         2.07658092726114    1.79589114851445   -4.94584259713776
H         0.34713493316592    1.53425939695449   -4.66411957534362
H         1.22765478351831   -0.67104526660092   -5.16434865009192
H         2.97918661807557   -2.09969286512320   -2.43136586111228
H         1.32993233844563   -1.82703798252269   -1.79410026423098
H         6.02751422245603   -0.20213677485510   -0.50225710691353
