32
 energy: -49.288941225820 gnorm: 0.116571937671 xtb: 6.4.1 (79825abcba525fcdf90b791dcacef51065a7a4e7)
C         0.70435702606561   -0.67487951347720    0.30974247672102
C         1.87807094239192    0.28644363841661    0.11763513323072
O         1.40560049231402    1.16592062086461   -0.91370593961924
C         2.31017430474922    2.04885957560269   -1.40565651561164
N         3.08649172569239    2.83502802043542   -0.74673313312194
C         2.08052548074895    1.98684448111103   -2.95850181160371
C         2.94091925540072    3.00402714562839   -3.75787154438439
C         0.55277055227589    2.04558505307872   -3.19831596958914
C         0.63209417112253    0.64580266820671   -3.83417376867645
N         2.06038009038954    0.61508008314484   -3.55988893874420
C         2.38971981597025   -0.54888683846051   -2.84350176899902
N         1.90023933559169   -1.70473733958070   -3.16560321443460
C         3.50479982761035   -0.46879193636978   -1.81805745665775
C         3.18170963345476   -0.36971682208334   -0.36354591801718
N         4.03646199310704   -0.87653352326614    0.47434526692177
O         3.61809142168200   -0.96173201966839    1.79534045540243
H        -0.19842047306373   -0.15480700547160    0.64928265100011
H         0.97697866705834   -1.45021548338077    1.03142613607097
H         0.57204369280298   -1.15231943907806   -0.66736252562382
H         2.04234139273315    0.87434314239819    1.02783248323061
H         3.01188278194055    2.70186742349601    0.27131222121468
H         3.95276398537186    2.60671736663421   -3.91091991329891
H         2.93801556860167    3.94154788039634   -3.18907870041704
H         2.55036490677733    3.07747904343717   -4.77636429798442
H         0.26971560815089    2.80011322047024   -3.93532864149213
H        -0.13343437387816    2.23009302006819   -2.36143232530084
H         0.29985982332584    0.58217112025456   -4.87948393338664
H         0.09273374459681   -0.09057487727211   -3.23747776506864
H         1.18124945334211   -1.66608180645756   -3.88439881617116
H         4.16236122114399    0.36702790455202   -2.09634377579885
H         4.09033514164464   -1.38801072118801   -1.91539156614696
H         4.04434877895143   -1.71891490191979    2.24107812290735
