32
 energy: -49.289921776613 gnorm: 0.132708855176 xtb: 6.4.1 (79825abcba525fcdf90b791dcacef51065a7a4e7)
C         2.19546235519606   -0.92363520844598    1.33239764813565
C         2.39576788447098    0.06911617289686    0.18654678727589
O         1.11290213815215    0.67826274790555   -0.02218366237951
C         0.91863412027634    1.58959448598574   -1.00787362752612
N        -0.15164437575996    2.30274133907190   -1.03677183244278
C         1.92554795616248    2.04739022748377   -2.12342753373058
C         3.33063425312876    2.45393226121526   -1.59960882216441
C         1.35440293240185    2.98006916581695   -3.21837033718498
C         1.31332707627619    1.80581909307675   -4.21308016560311
N         1.99787076676829    1.01252075626756   -3.20399425534249
C         1.88959296986948   -0.38853719324618   -3.24649999919664
N         1.58907845082639   -1.07461446141170   -4.30400643868009
C         2.08756877327192   -1.22258898240787   -1.99489387756398
C         3.04774194499028   -0.64303552888848   -1.00899718440915
N         4.26797202276252   -1.07826025557048   -1.11456428850877
O         5.19379361881549   -0.87491334598463   -0.10025397308850
H         3.22705069734484   -1.25632979068298    1.49336339607032
H         1.60553371783530   -1.80844244187690    1.07667105022588
H         1.68652933213534   -0.49119998089161    2.20083120273708
H         3.10550357765169    0.78974810882050    0.60848835722821
H        -0.75790693640771    2.10403893040245   -0.22888715829635
H         3.30864898891598    3.29608168951390   -0.89575542668106
H         3.82339241646467    2.87378081716842   -2.48470511322230
H         3.89936971850455    1.60872469159329   -1.20284756246694
H         2.03876814798486    3.77986393036258   -3.50921929502007
H         0.39207344018326    3.39582706334477   -2.89223854460066
H         2.00986172730776    2.08903783241341   -5.01415981233362
H         0.32832573226809    1.47287708399143   -4.54191088416956
H         1.49736158920972   -0.57089110710166   -5.18318708880879
H         2.30662423784342   -2.19671557563183   -2.45480383200726
H         1.14235265387040   -1.28485309600469   -1.44719105222698
H         6.09314928754289   -1.10374130276385   -0.40439286941372
