32
 energy: -49.288506540684 gnorm: 0.118168464437 xtb: 6.4.1 (79825abcba525fcdf90b791dcacef51065a7a4e7)
C         1.80618336759275   -1.36264126791119    1.03314295619836
C         2.32647703580707   -0.14584547769721    0.26675250621856
O         1.21482797237438    0.73760887391976    0.05671142127935
C         1.04660068143274    1.67956643317753   -0.90467604236059
N         0.00782853342604    2.43162662688052   -0.80334740476086
C         2.01831930260355    1.90586093352480   -2.11812841444939
C         3.38200068912209    2.44268177911562   -1.60225396303749
C         1.45303387959487    2.93448696239426   -3.12677963593544
C         1.60507136723956    1.89028972556513   -4.24773228272259
N         2.08946279690558    0.93871356624732   -3.25978266233733
C         1.82499154778524   -0.44138019596719   -3.30326115310277
N         1.33538015237745   -1.23063828709818   -4.20696642397559
C         2.10809955780463   -1.20333901127467   -2.02239295608104
C         3.03786147323399   -0.61862023872342   -1.01073403123269
N         4.31123445754219   -0.77624126281099   -1.21858806270972
O         5.08108399630769   -0.36460399247402   -0.13914030144772
H         2.70599161365531   -1.95988888816546    1.21864380899723
H         1.12765921205290   -1.92297046242106    0.38358010318282
H         1.37914454742576   -0.90659211366305    1.93305790111753
H         3.06088468882957    0.42081624545017    0.85037030357902
H        -0.46062688299134    2.26724707241850    0.09845272482878
H         3.74462982241073    1.90838537548234   -0.71448367528511
H         3.25020305105180    3.47156689431225   -1.24658042802056
H         4.14463717334912    2.51394812600627   -2.38235784727608
H         2.01361744878340    3.86182689178383   -3.26245295748264
H         0.40391209211316    3.21608512086108   -2.96759238759817
H         2.42135473412286    1.99422748022034   -4.97572980272743
H         0.68810188881921    1.49829278871500   -4.68899530583365
H         1.21435457923295   -0.84643662917696   -5.14123068837951
H         2.36594907977612   -2.24230054547768   -2.27238824859868
H         1.15722527387859   -1.37753571372812   -1.50976996253273
H         5.94018531014094   -0.11845672777446   -0.53291660880275
