32
 energy: -49.288350233892 gnorm: 0.123457251537 xtb: 6.4.1 (79825abcba525fcdf90b791dcacef51065a7a4e7)
C         2.25976882352128   -1.02704595398477    1.24947936822949
C         2.47728758435893    0.03877803516653    0.17460420036657
O         1.22882973642624    0.70094128958724   -0.07692176333373
C         0.97747601315315    1.67691330587265   -0.98474898175120
N        -0.21990815535855    2.13326213621133   -1.09844379449290
C         1.96631761245860    2.03546065160811   -2.15160332498275
C         3.39287673999725    2.53681711983949   -1.79453086775719
C         1.30537585129436    2.98110755923757   -3.18306070167190
C         1.46808859472621    1.88519942473241   -4.25194237255513
N         1.98556366826500    0.99244459298141   -3.22657168095076
C         1.69387655315576   -0.38277468359220   -3.21297799202734
N         1.29032570440621   -1.07596810769814   -4.23079942145735
C         2.08877004769149   -1.17190253793994   -1.97900430896502
C         3.12173248852128   -0.69536327678953   -1.01168536486368
N         4.33933880999739   -1.14619913874956   -0.95078959579415
O         5.12180075672688   -0.73549638808533    0.11990997287226
H         3.01106392184504   -1.81479979604655    1.12390181299018
H         1.28650054564620   -1.51857413256676    1.16319702647811
H         2.20893589299305   -0.47661921972076    2.19533153126915
H         3.14105652707982    0.79733906743705    0.60479693457564
H        -0.66100007160634    1.75619436449429   -0.24816595014535
H         3.38233622945847    3.16103389471867   -0.89156301874292
H         3.74843936165202    3.09823160127210   -2.66680826961411
H         4.02074630048359    1.64399650940010   -1.73202850510535
H         1.77948996603440    3.92805359588430   -3.44976192421174
H         0.27401316326309    3.22967882239794   -2.90057537027524
H         2.30979367091457    2.18317581464688   -4.89213344781406
H         0.60061176875626    1.56237959562067   -4.82855228162434
H         1.00505096307249   -0.40773839728291   -4.94297580524125
H         2.43427755216588   -2.14430575252532   -2.35779401298697
H         1.15713397045954   -1.33324540276684   -1.42826714973302
H         6.03136492515389   -1.03643836321788   -0.06937888975013
