32
 energy: -49.290151691558 gnorm: 0.134413045337 xtb: 6.4.1 (79825abcba525fcdf90b791dcacef51065a7a4e7)
C         2.05939616221790   -0.53145854918450    1.44505613726196
C         2.32587242351246    0.30026716482923    0.18971771830131
O         1.07878760070057    0.96609093372201   -0.05893993244759
C         0.96713085228990    1.73775127919531   -1.16886036916675
N        -0.09253554608200    2.40845352080717   -1.45552255548155
C         2.05124231818017    1.84685040772604   -2.30054610987640
C         3.40909984556710    2.40563732157075   -1.79269762061223
C         1.52665178071979    2.66280459956897   -3.50637358724363
C         1.76183199188973    1.42390150635694   -4.38944067986302
N         2.20421335831947    0.67627792783941   -3.22259261892332
C         1.81975318243692   -0.65609380623630   -2.99135652203144
N         1.28916549982717   -1.44649202242445   -3.87060520300805
C         1.88313645260199   -1.33496515625712   -1.63619197456874
C         2.94788593593822   -0.61020258399749   -0.88065588580614
N         4.20292496692842   -0.94809399831676   -0.86539656898389
O         5.11690072140259   -0.31725554286276   -0.03232263807064
H         1.00524806687195   -0.82962667803377    1.47030927897908
H         2.29887065616764    0.06831303650548    2.32779151392648
H         2.71743876059367   -1.40616275397714    1.49046956779663
H         3.10907665947827    1.00180402546003    0.49875977210839
H        -0.73401424872769    2.28964348659650   -0.65921618423506
H         3.89881559323246    1.57168860160674   -1.27325884864262
H         3.17040768071509    3.20998639860609   -1.08663284309658
H         4.01180412316857    2.77980533736143   -2.62456372474409
H         2.09994989747865    3.54140753758524   -3.80969960262096
H         0.49700288767895    3.04244445169310   -3.53785940869066
H         2.59381993575171    1.45509151433971   -5.10632645800275
H         0.87385995986739    1.05295580067366   -4.90238572875675
H         1.09545861895694   -1.00093473691585   -4.76450909598160
H         2.11362243930917   -2.38206010076088   -1.87887174228871
H         0.90745882773718   -1.27096884639952   -1.14502361444651
H         5.95952919830911   -0.58145783789117   -0.44930911264706
