32
 energy: -49.286711001599 gnorm: 0.122614343909 xtb: 6.4.1 (79825abcba525fcdf90b791dcacef51065a7a4e7)
C         1.90148182675411   -0.52043278544833    1.57529064401767
C         2.37871853666748    0.25273322735531    0.34520477715874
O         1.20926698682769    0.96896767423932   -0.07878079762856
C         1.09086086679680    1.80869647333932   -1.13740529790311
N        -0.04171373221633    2.41769198298635   -1.17358315585759
C         2.05292800531007    1.90123947252234   -2.37586220872574
C         3.55095018352132    2.16444434841382   -2.05871442291627
C         1.54834103896001    2.76621948209407   -3.55577659238910
C         1.47296666247057    1.52504868580442   -4.46341741084007
N         1.94257665702846    0.74873854799005   -3.32632212361762
C         1.77731971746066   -0.61996907694476   -3.05096094479421
N         1.54481061962074   -1.42119029712440   -4.04258332674246
C         1.90306859220771   -1.21795807262142   -1.66245417006039
C         2.95136501829020   -0.61471954652988   -0.78667742608779
N         4.16098963351124   -1.09020770503818   -0.80235324635417
O         5.05003983714840   -0.43286772089209    0.03717930146484
H         2.83459692727205   -0.87391971299741    2.02818507257384
H         1.26586672273694   -1.37345669907023    1.32104790106477
H         1.46526316339417    0.13291606202709    2.33886018705800
H         3.11818716640581    1.00504462646603    0.64233023957130
H        -0.63400881905492    2.13410538971947   -0.38081600123530
H         3.96538189749240    2.91855038564526   -2.74038813844886
H         4.12378452429159    1.22957760575525   -2.03963969414096
H         3.65997162691997    2.45063614686983   -1.00920789747064
H         2.30544967385808    3.48731695088977   -3.87109466227640
H         0.59765405595657    3.29489634810017   -3.40748751286750
H         2.08506979774508    1.62225245888251   -5.37060159351159
H         0.49632789825972    1.18989145936807   -4.81420798462054
H         1.33609740000711   -0.84650003325374   -4.85577316776582
H         2.22803776207987   -2.25737229449440   -1.81224803038967
H         0.90252168646875   -1.09088967867681   -1.23813326718466
H         5.97588033716024   -0.51020985360401   -0.26372082303872
