32
 energy: -49.288512348513 gnorm: 0.137653247256 xtb: 6.4.1 (79825abcba525fcdf90b791dcacef51065a7a4e7)
C         2.16013664019884   -1.10579575612657    1.30499818315783
C         2.42645294677361    0.02159287885408    0.30663836973016
O         1.21482514298022    0.75781752490506    0.08235320180473
C         1.05341570504031    1.60856941441979   -0.96168632906297
N        -0.00923511088148    2.33332809336243   -0.94149418997222
C         1.92408558318908    1.98683945640977   -2.21338864781516
C         3.30407830253811    2.51415767474289   -1.73225916271470
C         1.33060871532769    3.01512143789981   -3.20607075750768
C         1.59830401586755    1.96157601927188   -4.29619890600514
N         1.86707233616962    0.94641439232409   -3.28952759388406
C         1.89754418004913   -0.45895004092474   -3.26680162147382
N         1.97660694309663   -1.18638925727696   -4.33633990217522
C         1.82731404216367   -1.19447338525650   -1.94187602754452
C         2.85008375105773   -0.77213602941121   -0.93918947624153
N         4.08614912242298   -1.13425788417686   -1.11393674706879
O         4.91286947392044   -0.62351149389221   -0.12247690882312
H         3.08143457568393   -1.53843344355437    1.71095989372206
H         1.57640496571450   -1.91350833619170    0.85427270517979
H         1.66679936373166   -0.78234937825300    2.22813991850614
H         3.25593803614096    0.67659054186532    0.59647002975363
H        -0.64390996834169    2.12555476754238   -0.15808327597824
H         3.89116319929696    2.53696820651981   -2.65957767972764
H         3.92411291421048    1.87536096326808   -1.09196650063736
H         3.19360414650922    3.51128884140226   -1.29777065002625
H         1.93823394712559    3.92209311994147   -3.23460986326599
H         0.27731575595823    3.09915811211368   -2.90806670996896
H         2.42163038514267    2.11720411608094   -5.00684336983888
H         0.66510053919875    1.71797802722136   -4.80511831200070
H         1.91575786262403   -0.65033925777280   -5.19892648180319
H         2.04405403114251   -2.24845740805491   -2.16674609719434
H         0.87749367700400   -1.07642185681803   -1.41159890666100
H         5.83671289171862   -0.71141186417707   -0.42659890382010
