32
 energy: -49.284772930705 gnorm: 0.115483393876 xtb: 6.4.1 (79825abcba525fcdf90b791dcacef51065a7a4e7)
C         2.27149730691566   -0.97406853871533    1.40191934886565
C         2.39969877289457   -0.00896660206464    0.22259986377810
O         1.19741045062382    0.74827814183089    0.01899320153242
C         0.95626874213748    1.68668402235012   -0.93026724600588
N        -0.06375957490575    2.45098407609815   -0.75620616229856
C         1.88631873730243    2.01696812718932   -2.15249159368191
C         3.24189891085522    2.69020673659746   -1.80166092665429
C         1.14294095948834    2.91618758151616   -3.16924636447567
C         1.38077978923356    1.83987892268382   -4.24395119086128
N         2.01291745035045    0.99626679535563   -3.24150555757833
C         2.06074651366281   -0.40831592399103   -3.27830212858316
N         2.40794263899210   -1.12111488034577   -4.30334036319916
C         1.78765518182753   -1.15951075005130   -1.98892934336244
C         2.84370580591100   -0.86213580282594   -0.97594747287656
N         4.04543603598709   -1.31514629895099   -1.17632808214457
O         5.03028256239911   -0.98206539893122   -0.25629794494110
H         3.11332469042059   -1.63907849782677    1.62520967583317
H         1.46848066042253   -1.70174358077387    1.25376728945495
H         1.91122904871139   -0.42798917560973    2.28066504613962
H         3.18017405024619    0.70963254469434    0.49745155193303
H        -0.63189111028249    2.30631470543786    0.08996871073332
H         3.12621361826065    3.46913945802231   -1.03681496315325
H         3.73728080438331    3.35721894299292   -2.51732170420415
H         3.98114623380329    1.91138567718615   -1.59621866307890
H         1.56648755118849    3.91576123673642   -3.28791113394379
H         0.07731183748395    2.99739808314432   -2.91798144330360
H         1.95854523142706    2.17347061599160   -5.11688053991119
H         0.44895532135925    1.51016647129103   -4.70460348095956
H         2.56950863992291   -0.56419347045928   -5.13930854135102
H         1.84301108264742   -2.21251688735481   -2.29963643379159
H         0.80415176511618   -1.01079674227241   -1.53297551633649
H         5.88294359289168   -1.32400190934259   -0.58758620717841
