32
 energy: -49.288842318533 gnorm: 0.133904496774 xtb: 6.4.1 (79825abcba525fcdf90b791dcacef51065a7a4e7)
C         2.04403244364489   -1.04313831951893    1.31487872719771
C         2.33239163705619   -0.06131389374199    0.17842741001966
O         1.05138214567844    0.52646247510659   -0.09342941443474
C         0.93468425421426    1.58486231117670   -0.93368041019161
N        -0.00719198598783    2.45644093815249   -0.84351684981962
C         1.95507327768254    1.93342867052071   -2.07614297915271
C         3.35157739262964    2.26723696161247   -1.48261262749383
C         1.45802716672750    2.99835388728855   -3.08305700277329
C         1.58777730434989    1.90430417421586   -4.15833288773924
N         1.85123358884952    0.89179057667968   -3.14759865621990
C         1.91683989938336   -0.50532644398341   -3.28991540610562
N         1.80731403904576   -1.07849432507912   -4.44698651035786
C         1.92042727025430   -1.28723831412515   -1.98993245603013
C         2.94695535259017   -0.79756023444671   -1.02232586208167
N         4.21483724510697   -0.95735418084863   -1.25995549336884
O         5.17331804750442   -0.42428471959995   -0.40879597968398
H         2.88928614262016   -1.60897875279286    1.72248264151549
H         1.23697281993570   -1.74992661682673    1.10180408772812
H         1.63559199720399   -0.53681768459502    2.19635799965614
H         2.91791587427601    0.72441688119781    0.66920063792656
H        -0.68013391160496    2.28975419574110   -0.08254425882675
H         3.93186097211971    1.55098226348429   -0.88649285158004
H         3.18889348906442    3.17858987952811   -0.89486381033090
H         3.97782210087683    2.49783346995578   -2.34857925033983
H         2.06715805598871    3.90356278045587   -3.12971482934400
H         0.41358424699146    3.25493007514370   -2.86259775897560
H         2.40942569281386    1.99217790026476   -4.88240063823587
H         0.69915849811390    1.86482229991436   -4.78920963278766
H         1.77061249528455   -0.42905123129619   -5.22928088347694
H         2.26315452577654   -2.30082335168940   -2.24213970293470
H         0.90413313906905   -1.19531672394061   -1.59498260737357
H         5.87140519572317   -0.13322769527629   -1.02658515504206
