32
 energy: -49.288227079430 gnorm: 0.121965305732 xtb: 6.4.1 (79825abcba525fcdf90b791dcacef51065a7a4e7)
C         2.05760791385499   -0.95064778711857    1.32811947893173
C         2.49359537022225   -0.02430957486695    0.19213344313720
O         1.22693050559980    0.59993006568661   -0.06527185624291
C         0.97203969963631    1.62952923509785   -0.91073418989758
N        -0.20308358341237    2.15040719204148   -0.85895559883011
C         2.00264841144852    1.93959126230859   -2.05512056278664
C         3.31988299847428    2.57670727663603   -1.53271630486398
C         1.40097643596115    2.90003214891338   -3.10894243723243
C         1.70501985608614    1.86101095082495   -4.20347002957233
N         2.06530219134515    0.92193778002849   -3.15251098589758
C         1.74434434049987   -0.44402204927931   -3.23988381994945
N         1.52649039395259   -1.05305588722704   -4.36280336854317
C         1.89352046787503   -1.26174961182023   -1.97085946482417
C         2.96463783722449   -0.84978127082988   -1.01545552543619
N         4.23145994505934   -1.00537440638278   -1.26138021694775
O         5.19984613308215   -0.45341534210011   -0.43379916585005
H         2.86762024424810   -1.05102737250916    2.05926524214427
H         1.64330210129732   -1.89611554618381    0.96654356071613
H         1.27207104838075   -0.49037609404991    1.93744015955262
H         3.37298284768646    0.58539984384024    0.42878070676460
H        -0.78848394817033    1.67906000528390   -0.15549783159052
H         2.97995577947712    3.55452483480814   -1.16743431168735
H         3.96857266817396    2.71776552054409   -2.40551819883767
H         3.84476831471892    1.97144967178439   -0.78879829805697
H         1.88633258927413    3.87134592678466   -3.22555925817481
H         0.37031130284444    3.16400816723741   -2.83812759959925
H         2.51394309447615    2.07948062388259   -4.91411492598612
H         0.81180876896495    1.62263997980836   -4.78188243201952
H         1.44599878009450   -0.38935109736113   -5.12969636929918
H         2.06173363179313   -2.28236111757877   -2.34299058862118
H         0.91477242636984   -1.33045228771576   -1.48648262032142
H         6.06462423572833   -0.78454795390013   -0.74398193274783
