32
 energy: -49.292663574609 gnorm: 0.117008483976 xtb: 6.4.1 (79825abcba525fcdf90b791dcacef51065a7a4e7)
C         2.30975203501278   -0.97290557146122    1.43207639519089
C         2.55763490019539   -0.02476770261037    0.25809152775807
O         1.45796431667090    0.88998872826104    0.13843472211276
C         0.95291911212065    1.54695045293267   -0.93542790707637
N        -0.24345901878960    2.01548465611416   -0.87167320914695
C         1.90957505071161    1.96417054946532   -2.10958707384672
C         3.17313948154259    2.63944537369626   -1.50847241336252
C         1.30450305588868    2.91838114912587   -3.16711551615580
C         1.67136345227433    1.91288037640384   -4.27363246067099
N         2.12032978827271    0.99848590161448   -3.23512936908146
C         1.91452678594417   -0.39038854246074   -3.30701209832888
N         1.71011685729259   -0.98691564034686   -4.43913527379465
C         1.78079917293191   -1.19923373794563   -2.03059481357821
C         2.82037965098045   -0.82961461446819   -1.02438352683960
N         4.02017832200041   -1.28916253175590   -1.22142488652035
O         4.99931228703888   -0.70898368349461   -0.42643419362780
H         3.27576815978813   -1.25938094933048    1.86279076224288
H         1.75730917784484   -1.86528029319169    1.12422906814434
H         1.78789660002465   -0.44046050368389    2.23479617284463
H         3.45254828185923    0.54208178529571    0.53895008479978
H        -0.61509802007391    1.73664796189077    0.04693940919060
H         2.72307147176926    3.46332246896918   -0.93946103474067
H         3.92038301688606    3.00249716216931   -2.22422331565819
H         3.70816153241294    2.04889717521288   -0.75996750657191
H         1.72843692263984    3.90686764140502   -3.35631133673884
H         0.20878360917744    2.94083557391528   -3.10239054803422
H         2.52298413804118    2.25927895039982   -4.87517399056564
H         0.91011457592372    1.49238826325539   -4.93157942413024
H         1.83173981836692   -0.39592051908321   -5.25830585737482
H         1.81112649237095   -2.26722104350610   -2.28926149599160
H         0.75128603113815   -0.93838254966021   -1.76725459426944
H         5.85880951847363   -0.94232113032921   -0.82708549837403
