32
 energy: -49.282297566654 gnorm: 0.140234044771 xtb: 6.4.1 (79825abcba525fcdf90b791dcacef51065a7a4e7)
C         2.18172449167248   -0.87853554667624    1.30020730777497
C         2.30659006959806    0.13467990880659    0.16158759303496
O         1.00965985116631    0.61538624457925   -0.22216484675630
C         0.97337592072976    1.80884861580650   -0.86573410541846
N         0.14194944859155    2.73425021026898   -0.53821080255666
C         1.85394753890006    1.90448800454270   -2.16317762751886
C         3.34659640421522    2.25811989881920   -1.91645141498467
C         1.26774644927888    2.87775648915450   -3.21394551026989
C         1.12831186287432    1.71741355794578   -4.21602354210864
N         1.55114058339793    0.82048582008581   -3.15163959450437
C         2.00361193213668   -0.50087710826584   -3.31215092953107
N         2.23352435026810   -0.99775318912659   -4.48670842123694
C         2.13264403850920   -1.31240281996420   -2.03695235015616
C         2.94107327213167   -0.77453497834704   -0.90251531661108
N         4.19096136997295   -1.11985485869649   -0.99229484985305
O         5.01822968902661   -0.64839944580967    0.01799121942758
H         3.10120923779034   -1.39423337658940    1.59916167465802
H         1.41510690607362   -1.62114638961362    1.06120448282879
H         1.87481767225093   -0.31104538714047    2.18561852043066
H         3.06448140279132    0.91629091238325    0.28710577150262
H        -0.37816102897102    2.43895311790092    0.29964318713509
H         3.47400811736752    3.03623118904622   -1.15263357561209
H         3.83712677709419    2.70304738109059   -2.79046419682024
H         3.98793065969901    1.40602117040144   -1.67588231514548
H         1.90761269873879    3.65782666419134   -3.63189555203831
H         0.29166486095203    3.27522938886518   -2.90641558396212
H         1.99477235488014    1.75893177171540   -4.89028197326862
H         0.14365279000118    1.48984889782079   -4.62574113618497
H         2.06505254406154   -0.24154229558124   -5.14615528080501
H         2.46984358487714   -2.33442306446950   -2.26099735757675
H         1.13865771078837   -1.31347064780807   -1.57948238799076
H         5.95334697788776   -0.78435382237221   -0.22853542450664
