32
 energy: -49.290610461451 gnorm: 0.119931227131 xtb: 6.4.1 (79825abcba525fcdf90b791dcacef51065a7a4e7)
C         2.13862960913443   -0.96756858846599    1.42473127844850
C         2.33121720180771    0.01390462084882    0.26789413480962
O         1.08670815155611    0.68335288299871    0.01608318625391
C         0.99526679187096    1.70866307960053   -0.86722186844096
N         0.04775247830473    2.56677343794682   -0.72309394810720
C         1.88710183611754    1.90785917378817   -2.14505759482534
C         3.32846494112741    2.29430959965091   -1.71255500966152
C         1.34530053464987    2.95197879363536   -3.15067282000853
C         1.43104317834867    1.83786262848817   -4.20963055060166
N         1.88327215206079    0.86850105364045   -3.22372802595149
C         1.88691794844771   -0.53178889497113   -3.34890386295521
N         1.69829973416888   -1.15921859781178   -4.46697631893140
C         2.09827104418933   -1.32517266937438   -2.07327587237140
C         2.88830502376076   -0.74463914918389   -0.94693925211895
N         4.15402367270852   -0.97016779212763   -1.13830169689662
O         5.08747552362126   -0.42833770143797   -0.26514145017642
H         3.11171926492682   -1.24638343528902    1.84440849660266
H         1.63522861994295   -1.87799968535542    1.08709479301314
H         1.59475773590596   -0.57103252462630    2.28911107033866
H         3.08815694755016    0.77205193501972    0.49881558718310
H        -0.52501745251373    2.31360267028220    0.09394568481433
H         3.42081829867213    3.12544401562394   -1.00136230434772
H         3.70739045516438    2.63262689039785   -2.68437584545073
H         3.93939664640753    1.46531086901683   -1.34543251030960
H         2.12040059042486    3.70348528442380   -3.31522809095763
H         0.33937411336413    3.33480263590723   -2.93421827216188
H         2.10624529718576    2.07603161887181   -5.04298497990188
H         0.39774821335864    1.64151857869226   -4.49765521341261
H         1.71683668915881   -0.56837124228308   -5.29502438869488
H         2.69279069239941   -2.15064932398277   -2.48988093898447
H         1.06569017288045   -1.56193247804013   -1.79939585691924
H         5.92957782322799   -0.82996883831467   -0.55368862185977
