32
 energy: -49.283797222088 gnorm: 0.124339203327 xtb: 6.4.1 (79825abcba525fcdf90b791dcacef51065a7a4e7)
C         2.35796983930915   -0.74960880807989    1.46160772522999
C         2.43871346043294    0.11496574146549    0.20278163273231
O         1.20606224299721    0.84313868576259    0.09930396275909
C         0.91495134576427    1.76871330520898   -0.84854433623373
N        -0.18950672229252    2.42742091769587   -0.81410224059008
C         1.87308376377530    1.99066937737649   -2.07354667416249
C         3.37660745992159    2.20411245309319   -1.74523499399758
C         1.21427401545417    2.84295043092014   -3.18466463881987
C         1.53310026823709    1.78623087754757   -4.25783364229365
N         1.94723536654791    0.94620594145241   -3.14471778028646
C         1.95929116278422   -0.45285418623840   -3.28248437923181
N         2.00897312215527   -1.06357390754007   -4.42436178149275
C         1.85393058104665   -1.29835175473220   -2.02733987867898
C         2.78721800751158   -0.82452293778759   -0.96231975402634
N         4.03141596425562   -1.13811911236065   -1.17005836679727
O         4.96989269830831   -0.64357786517790   -0.27450747719020
H         3.06774287879686   -1.57774233447459    1.35583788781027
H         1.33853569523052   -1.13777398919499    1.54146731083665
H         2.48222689410784   -0.05201760287584    2.29714143859782
H         3.28376147289867    0.78432899604028    0.40005436182548
H        -0.88497669269141    2.20277289740445   -0.08914060745241
H         3.73707769640441    1.19888631509588   -1.49089221326933
H         3.52323397853138    2.90014817401917   -0.91066097035355
H         3.85314190514947    2.58333439768705   -2.65317828288410
H         1.68781315398435    3.80213627855996   -3.40453671257070
H         0.16089502107709    3.04778779578348   -2.95286951425420
H         2.43980614294973    1.86105280152801   -4.87377854040694
H         0.68934909251225    1.46480129597534   -4.86936831106548
H         2.20418200077024   -0.45715817328544   -5.21762168362516
H         2.11648074221192   -2.33133736104558   -2.29647412013858
H         0.84659750444049   -1.42019445031684   -1.61779971670809
H         5.80063513683099   -0.63093801426614   -0.78774286027013
