32
 energy: -49.293089641705 gnorm: 0.120777006034 xtb: 6.4.1 (79825abcba525fcdf90b791dcacef51065a7a4e7)
C         2.36205527107608   -0.88155190754379    1.36751111449664
C         2.48274474376062    0.17072195814185    0.26442201297639
O         1.27903684864536    0.93705225208748    0.10886604845516
C         0.93936953620927    1.58526574687573   -1.03319160831031
N        -0.29767327772875    1.87276920565397   -1.23807310964427
C         1.99060817522094    2.03109055647210   -2.11210332725361
C         3.41012151098800    2.40541618531726   -1.60338710638227
C         1.38144246413596    3.01703125606454   -3.13769313720311
C         1.38043903570952    1.87646831003714   -4.17167247055625
N         2.05500983526097    1.01620019681417   -3.21194870325787
C         1.84511038963813   -0.37309201925214   -3.25994430046657
N         1.52044345143413   -0.97761418630887   -4.35925099234753
C         1.98099808941583   -1.22630530924641   -2.01298146765679
C         2.88465316729700   -0.62130179994151   -0.98966076109874
N         4.06130523080593   -1.17323012994515   -1.00944654126374
O         5.04410599377321   -0.77320253023098   -0.11423617725376
H         3.40578571565991   -1.10123687442552    1.61877877648358
H         1.81016927982236   -1.76205748821274    1.02629636396426
H         1.95396207233251   -0.48390467818557    2.30320684897084
H         3.30533418302257    0.84802056678168    0.52070904029592
H        -0.99860055719860    1.47137005001235   -0.59987702050738
H         3.30002915300960    2.91439731169410   -0.63698837584544
H         3.77560855606980    3.02244039089601   -2.43295278529424
H         4.01622334752903    1.49615265943173   -1.63708836159671
H         2.08990134039587    3.76971892467287   -3.49006768837319
H         0.40713281193774    3.48408931211560   -2.94308560114052
H         2.12394543130511    2.04500823289777   -4.96280742431715
H         0.40428008404631    1.57306545561746   -4.55149885484935
H         1.56213497255913   -0.39562155803643   -5.19271017990783
H         2.32734135623331   -2.21316151000746   -2.35148739076441
H         0.97266804899984   -1.39223005750989   -1.62179325229712
H         5.86309754490981   -1.18199669581654   -0.45459406539623
