32
 energy: -49.287376580205 gnorm: 0.122469126725 xtb: 6.4.1 (79825abcba525fcdf90b791dcacef51065a7a4e7)
C         2.30229807169293   -0.82046995531971    1.32944998426961
C         2.58251191320834    0.17736566545113    0.20496961582230
O         1.29705538802120    0.79359588151214    0.03693885568646
C         0.96508084462772    1.63205662958171   -0.97628708096879
N        -0.13533775634046    2.29782646232660   -1.00347228036051
C         1.91009572053135    1.99304796783672   -2.17817937371022
C         3.39537392583079    2.34373192461273   -1.88680436226194
C         1.21360949568479    2.95221781092603   -3.17311482760875
C         1.34363959336262    1.90761703290485   -4.29645782428856
N         1.83985444544326    0.98675270592130   -3.28553923872125
C         1.90397896086389   -0.41667707810350   -3.33814240854357
N         1.81363062682868   -1.07690312119785   -4.44956924670780
C         2.02253713888194   -1.13276533905302   -2.00603271064434
C         3.02667831599143   -0.64817111458925   -1.01271707390670
N         4.17559627128933   -1.25268983162124   -0.94891195189165
O         4.89888121070036   -0.97062725046753    0.20200968664505
H         3.29028017284920   -1.23334254496384    1.56225410402924
H         1.76356017345510   -1.68367270012092    0.92827890532953
H         1.85048363549051   -0.33251837116923    2.20005716184819
H         3.30874533147934    0.94666100740601    0.49104572121874
H        -0.66985149423252    2.21111592365164   -0.12797760174070
H         3.99708580735665    1.44955946652819   -1.67822093733927
H         3.38583561556811    2.95539597299487   -0.97671921550016
H         3.96272575703670    2.89462962422921   -2.64170765722084
H         1.56710296421572    3.98547697467369   -3.16691794217292
H         0.16820786851135    2.93763726318639   -2.83812604996133
H         1.91858080501607    2.09735979989973   -5.21326873785606
H         0.35867018539945    1.63364588487385   -4.67590840669150
H         1.68694803402324   -0.40917786579838   -5.20667051299198
H         2.22059728836016   -2.19702895374660   -2.19718767203397
H         1.01864780147256   -1.09255205522281   -1.57258397225960
H         5.73349392593918   -1.47768210582951    0.20651655644218
