32
 energy: -49.286322211908 gnorm: 0.109215278104 xtb: 6.4.1 (79825abcba525fcdf90b791dcacef51065a7a4e7)
C         2.09928430198482   -0.97455775083182    1.33710449724572
C         2.40345735782135    0.01482818257533    0.21138426138764
O         1.16430020656981    0.68196478523555   -0.07108841147904
C         1.01691653339834    1.74127210303887   -0.90535240356645
N        -0.14968670747773    2.28135047844946   -0.95291129680702
C         1.99669066944740    2.03777691625523   -2.09700693485217
C         3.44042644212460    2.49093199846564   -1.74457613136832
C         1.37822127114417    3.01443336872902   -3.12590644171081
C         1.26841527221922    1.84625731706269   -4.12255355073077
N         1.80465398791929    0.95060478718508   -3.10942410659352
C         1.92199751806785   -0.43806987612473   -3.29464659687252
N         1.57501965501112   -1.06059194540356   -4.37696055691452
C         2.20045229739994   -1.36481200659404   -2.12632872305039
C         2.95691866526648   -0.79373248304751   -0.97245098053793
N         4.22195912255332   -1.08120464475489   -1.05343769763021
O         5.09203900153841   -0.46339902305856   -0.16540715766524
H         3.01131566438842   -1.53778248431083    1.56458385520191
H         1.26635150399047   -1.55765702011054    0.93397432714890
H         1.80907676634729   -0.57686008978605    2.31578015658797
H         3.23328307586132    0.70504765184234    0.40126898168407
H        -0.74346626305037    1.95481424614489   -0.17798257747780
H         3.46204249068221    3.56406717647938   -1.51431051584113
H         4.11789170599485    2.27921979551040   -2.58045747364161
H         3.87423243010687    1.95031276976951   -0.89911851537809
H         2.12041499585796    3.66683262978577   -3.59081957139055
H         0.46437617314470    3.40548809384557   -2.65979704072649
H         1.92282303157903    1.81662247711058   -5.00458202894471
H         0.27796359607649    1.58927521945358   -4.49961236875504
H         1.33688892345441   -0.44117144500576   -5.14814135287724
H         2.82715664949922   -2.22383106479409   -2.40517096975604
H         1.22654179025805   -1.72483639028503   -1.78111938492317
H         5.90834183476592   -0.99770656371709   -0.12218147808139
