32
 energy: -49.286538984177 gnorm: 0.133224694964 xtb: 6.4.1 (79825abcba525fcdf90b791dcacef51065a7a4e7)
C         2.34976292501123   -0.86204214375824    1.42700763973427
C         2.42902944847548    0.13010511875609    0.26596826223697
O         1.15820215498570    0.75208718132529    0.02408234267951
C         0.94801368204926    1.61092568021316   -1.00454177057749
N        -0.23668771260216    2.09186622529473   -1.14627535282461
C         1.94927139666204    2.06574751701226   -2.12638536473485
C         3.39419745300422    2.40918585505499   -1.67013018658659
C         1.41294332991925    2.94927293482637   -3.27822365114307
C         1.68987597547473    1.80425482702459   -4.26930384286496
N         1.94766285032376    0.94708399779265   -3.12257772419901
C         1.69145305273490   -0.43323970662538   -3.19712451566904
N         1.41848670544053   -1.08589166327402   -4.28288032101048
C         1.90481473823477   -1.25485863401287   -1.93983623079138
C         2.87432824501306   -0.69404644521188   -0.95224305794792
N         4.13302940569963   -0.96559593571247   -1.12960905733982
O         5.12175414461013   -0.69261368858699   -0.19407439940458
H         3.24192340102862   -1.49777044379330    1.40113533610643
H         1.55736454308136   -1.61373033823703    1.36899563326953
H         2.27849830315401   -0.31320813140054    2.37246650656820
H         3.06418785119688    1.00538619879749    0.44352578424480
H        -0.89765961025563    1.82822174246461   -0.40241896537508
H         3.98242354899618    1.48820740303678   -1.56573970211586
H         3.30553875837943    3.01097637306262   -0.75773407285977
H         3.91282047605214    2.93253137465313   -2.47783990992549
H         1.93716765197988    3.89332657371136   -3.44123321919371
H         0.35667914709258    3.17322604091535   -3.07961445457097
H         2.59502438417866    2.03760200807469   -4.84667497665155
H         0.80359034020140    1.48098689372707   -4.81629862532809
H         1.32345635412735   -0.45501388535458   -5.07538917564848
H         2.41686685265528   -2.19160785408320   -2.20199767143686
H         0.90559736609580   -1.39461233364284   -1.51637163551648
H         6.01807463309438   -0.97006985266097   -0.46487133378646
