32
 energy: -49.291158394312 gnorm: 0.119086676562 xtb: 6.4.1 (79825abcba525fcdf90b791dcacef51065a7a4e7)
C         2.11610274206132   -1.09816655502889    1.40130421609222
C         2.29828745689611   -0.07828771270063    0.27644525222505
O         1.12562744668200    0.73491978177944    0.12173726257762
C         0.99468505989982    1.63905519712615   -0.88088108214678
N         0.00955108971688    2.46587339707421   -0.85273284127633
C         1.95553034044024    1.91978236338456   -2.09161702099433
C         3.37468330968007    2.43353265541009   -1.72284139410261
C         1.32907433922302    2.89304572761859   -3.11889872288152
C         1.54431473963688    1.80544273157049   -4.18697615313549
N         2.08642360566964    0.90259206700978   -3.18340485757439
C         2.07830170549000   -0.49350256170292   -3.34877722527714
N         2.08215563361712   -1.18521149836323   -4.44461241272580
C         1.77653983722214   -1.21164956233720   -2.04702479756473
C         2.76354615436115   -0.72274226288657   -1.03876132159958
N         4.02060381215277   -0.92396689977080   -1.30113727852838
O         4.85962271737588   -0.47374163417180   -0.29085736122273
H         3.14515181654600   -1.40693186421593    1.61692460397217
H         1.45719674098898   -1.92684162402575    1.12664762283494
H         1.77775307860649   -0.48450289808586    2.24340059639871
H         3.07024650351032    0.66024180068152    0.52082863065071
H        -0.52718389499214    2.26062094037050    0.00137580247593
H         3.97136735360776    2.29013607343572   -2.63306894590134
H         3.89463165010580    1.77405467889164   -1.01770213386300
H         3.33966596687453    3.44154586940743   -1.30101380867367
H         1.94795918216406    3.76527078553670   -3.33986372427169
H         0.31422359875756    3.12992885553020   -2.77355977700433
H         2.24588167634562    2.08902538937127   -4.98352287676928
H         0.60774778331219    1.40173018466038   -4.57306706567061
H         2.27775481114615   -0.58719339544714   -5.24412672348905
H         1.82546249381641   -2.30755568773145   -2.11788683044810
H         0.79585371049306   -0.87001488618125   -1.70230868909474
H         5.79718430629736   -0.65559267711317   -0.49484703767751
