32
 energy: -49.285675729443 gnorm: 0.120836520426 xtb: 6.4.1 (79825abcba525fcdf90b791dcacef51065a7a4e7)
C         1.91879221008970   -1.15919210416486    1.19441064361678
C         2.37131010144080    0.01190170395679    0.32124475585425
O         1.22467093258935    0.86213111643703    0.17057607394480
C         0.93961154042453    1.67889068851292   -0.87417043300131
N        -0.03098399439093    2.51241242674738   -0.73965124025595
C         1.91167808408217    1.88951219322252   -2.09016309311137
C         3.29239135761663    2.43585059642076   -1.63291566746455
C         1.31789691556953    2.76590763482840   -3.21903481470764
C         1.74143806693305    1.72373633720588   -4.26998199925227
N         2.18162833964981    0.88373410545804   -3.16689293615367
C         1.92712055789624   -0.49112275801211   -3.31348294824431
N         1.72527428812948   -1.21249436587919   -4.37093836924560
C         1.86357538303049   -1.09207148219781   -1.92201703854485
C         2.91259001661516   -0.59535929633656   -0.98252124219220
N         4.16240469374152   -0.84375009697037   -1.23902021448576
O         5.18050291902592   -0.51404490034414   -0.35466084063386
H         2.66225663090079   -1.95584919342715    1.31003200626515
H         1.07293842352309   -1.70114382609388    0.76184222490711
H         1.52455333739695   -0.77538369699924    2.14175256066782
H         3.09800161590866    0.57959620418939    0.91345437774533
H        -0.59150506808055    2.34591934357838    0.10758589545555
H         3.90363188142459    2.48073404330362   -2.54367311312060
H         3.64904300068818    1.88031861997525   -0.75732290208289
H         3.27302429382227    3.46466235184974   -1.26355587212057
H         1.90364982552417    3.68135956983535   -3.32609471081561
H         0.22647180023481    2.88430415840981   -3.22728769788460
H         2.55313570304979    2.02425940859037   -4.94669080651150
H         1.02123726393992    1.20861613927065   -4.90651138892174
H         1.74613570174596   -0.70496525308336   -5.25246365136781
H         2.05534993689894   -2.17266308862830   -1.98502018090103
H         0.82679889989638   -0.96248252773374   -1.59707096271473
H         6.00232530256575   -0.57811699896812   -0.87830772409642
