32
 energy: -49.291366816934 gnorm: 0.129618962543 xtb: 6.4.1 (79825abcba525fcdf90b791dcacef51065a7a4e7)
C         2.23933154210256   -0.68377293404959    1.43122638506004
C         2.47272029149045    0.11503845662794    0.14822916935267
O         1.20962870676482    0.76922613473339   -0.04415223814838
C         0.90327267882621    1.62877398280318   -1.04773272368180
N        -0.24175643317461    2.20194224206941   -0.92405547843808
C         1.96242586695899    2.00121174450424   -2.14654915660599
C         3.36390079250662    2.47876255281456   -1.67565297180960
C         1.37800005058478    2.94346290587249   -3.22618131437823
C         1.50820024835744    1.75318380647046   -4.19379780616251
N         2.02240318156282    0.88615230444940   -3.14497541916252
C         1.88938432684852   -0.51199136679467   -3.20817703070796
N         1.71322621526673   -1.06659538610328   -4.36606889307796
C         1.89577462242980   -1.36219949222139   -1.95180925640187
C         2.89878372878937   -0.84383889720018   -0.97452627132402
N         4.15199593230305   -1.14641945671138   -1.14014812837931
O         5.07610344433850   -0.68566008949955   -0.21222187928124
H         3.18458394747726   -0.94072233780587    1.92239341762155
H         1.77672179403449   -1.67214390325103    1.35766839949465
H         1.62903040653301    0.00615628016027    2.02428632494446
H         3.25532574055099    0.85117187010143    0.36434520174405
H        -0.74662691121931    1.80771564209167   -0.11819831104938
H         3.16538337439044    3.07790307399099   -0.77747142553344
H         3.85772531527873    3.07322958771825   -2.45361514185587
H         3.99556826294811    1.62133956140752   -1.42851458069952
H         1.96763935137895    3.86010637861707   -3.29481636221505
H         0.32380662948989    3.19755348335775   -3.05469127599998
H         2.23842880045369    2.06103925888060   -4.95477957553837
H         0.56926673840097    1.56375287052568   -4.71507263752382
H         1.66744371272150   -0.49578636505191   -5.20701409843676
H         2.10751838028306   -2.33543326087453   -2.41700351016142
H         0.90242972836596   -1.33495222839000   -1.49375662225632
H         5.93778425203930   -1.00873877311007   -0.53906996638537
