32
 energy: -49.286965176798 gnorm: 0.134134146473 xtb: 6.4.1 (79825abcba525fcdf90b791dcacef51065a7a4e7)
C         2.15853895627866   -1.01266286802197    1.40278264437326
C         2.48895697701251    0.00186129644894    0.30723872992267
O         1.31362175182506    0.79409809246112    0.08069853623820
C         1.01395700976395    1.70387541617708   -0.87969543601011
N        -0.15406390305845    2.23815760343405   -0.95166279655143
C         1.85482773186290    2.02944042185015   -2.16610781402353
C         3.19500349545131    2.64409707027971   -1.67615257255567
C         1.30549846530995    2.92959039976220   -3.29878771767077
C         1.78384531480705    1.84615307102578   -4.28232518535906
N         2.08595267513261    0.94911493153194   -3.17768478293494
C         1.85240595155871   -0.43722917967325   -3.17728058776098
N         1.82598918410778   -1.13478976717863   -4.26908747190524
C         1.82294073901115   -1.27190839018403   -1.91086946188972
C         2.86637691150603   -0.73413159678346   -0.98791543658321
N         4.06707405361691   -1.15769162523559   -1.24954443278798
O         4.95425349047763   -0.68012703670760   -0.29447075081497
H         3.13053356600305   -1.41691764180363    1.70704358688943
H         1.43737835572069   -1.68640491920062    0.93130117717968
H         1.65341932261247   -0.58841988748080    2.27746083559532
H         3.27710124819662    0.69740348500071    0.61727020457304
H        -0.71496165010291    2.03185705028875   -0.11348120059207
H         3.92258545293365    2.84798137098263   -2.47249691394641
H         3.72149555809250    1.78337237518992   -1.24669014585956
H         2.95471254236363    3.41736884597573   -0.94160074059099
H         1.82383032476900    3.88470018395740   -3.40703703865161
H         0.21582753258055    3.06341153270417   -3.29684192483186
H         2.66015277998150    2.21278258915759   -4.83438496338389
H         1.05156342249077    1.46057640709381   -4.99246710257935
H         1.86554496892096   -0.54103337565762   -5.09431260064374
H         2.11637771843428   -2.27517131296336   -2.25113898161349
H         0.85136679502043   -1.38747367615242   -1.42099452371974
H         5.81821812605716   -0.90432945844984   -0.69070515969245
