32
 energy: -49.287759703785 gnorm: 0.123399969426 xtb: 6.4.1 (79825abcba525fcdf90b791dcacef51065a7a4e7)
C         1.86139683944617   -1.12113192792099    1.10523019243476
C         2.38489957471016   -0.07384053439945    0.12147338482386
O         1.14895712552331    0.55958677973965   -0.24127805963979
C         1.04052453789405    1.73801150967146   -0.90415653915392
N         0.09649904545362    2.60351267322095   -0.78318869793875
C         2.03779817630526    1.98168756301233   -2.09326555761606
C         3.44605399388735    2.54124406812889   -1.75027569882985
C         1.44389276247813    2.93050784236849   -3.16191557460447
C         1.36939310457415    1.72685867589344   -4.11882549087253
N         1.84151737996367    0.85182049346120   -3.05694813037478
C         1.79491750440463   -0.55167278368004   -3.12424792658480
N         1.38056254546730   -1.19712552340044   -4.16877250956052
C         2.22562029295893   -1.50619934206087   -2.02664651569227
C         3.08861131255794   -0.78017521387799   -1.04790113895897
N         4.37808298003629   -0.93905315375797   -1.00856835681972
O         5.17911852088731   -0.18035728057561   -0.16592747591762
H         2.65025639075519   -1.49341564224433    1.76846138202281
H         1.31743255236420   -1.94756669789234    0.63896399980791
H         1.16132923923246   -0.57353347446443    1.74572311461769
H         3.06387391917574    0.65592222218333    0.57700604608131
H        -0.57634267014282    2.46197042432283   -0.01705267590946
H         3.31701098790166    3.42774169113217   -1.11578496796359
H         3.93783489261201    2.94584113249578   -2.64298596372016
H         4.10446536617391    1.87280562695981   -1.18908065565838
H         2.07434163500570    3.78906671128391   -3.40281270187530
H         0.40606125292655    3.20775238480124   -2.93534140395933
H         2.06046512680286    1.79694527758259   -4.97006535049171
H         0.37303123879276    1.51559004891468   -4.50848723041909
H         1.00605940606903   -0.56099506314625   -4.86891053890329
H         2.77688017256283   -2.33815921370685   -2.48749400307402
H         1.23002455830074   -1.82717776893411   -1.70563139482001
H         6.03764846823158   -0.43648970657274   -0.55454790023787
