32
 energy: -49.294402391738 gnorm: 0.120989626410 xtb: 6.4.1 (79825abcba525fcdf90b791dcacef51065a7a4e7)
C         2.32281674152257   -0.89346987442183    1.38517690896493
C         2.42918064170650    0.12183252030293    0.24653755163302
O         1.14798688741851    0.73189463878106    0.03034487849862
C         0.91576938099897    1.59680184107489   -0.98840969306804
N        -0.24456460218951    2.13477476588914   -1.12668394574157
C         2.01568695147544    1.96894981630184   -2.04652129266497
C         3.30649329113969    2.56629446030956   -1.42127866095845
C         1.46404789014614    2.92176500595108   -3.13410299345434
C         1.69970980628555    1.81558696416620   -4.17853188241607
N         2.18926352350284    0.94214468523174   -3.12325350643706
C         1.88656972439511   -0.43058819514555   -3.14505126487389
N         1.74949472916544   -1.04685306470411   -4.27675747638078
C         1.72014731670545   -1.23212041894537   -1.86786513699598
C         2.80877107204547   -0.70118876745743   -0.99447120200201
N         3.97327247849736   -1.19768506306088   -1.28935144387616
O         5.08590262979171   -0.66039755490152   -0.65634488564727
H         3.26836544967840   -1.44666430645958    1.41132506025886
H         1.47638341755150   -1.51814191402957    1.08579219356811
H         2.12824739896017   -0.46916612334988    2.37628688556096
H         3.21722661836110    0.82966229152337    0.52766099882220
H        -0.94351329524392    1.79702121409801   -0.45058643399594
H         3.15121809161707    3.03770747500676   -0.44211166920392
H         3.54229041223013    3.37265613788909   -2.12601934151248
H         4.09116046036493    1.80860070136895   -1.34743445665500
H         2.04831352980734    3.83299559798081   -3.27871627851850
H         0.38084690138937    3.06226539879031   -3.02351418091660
H         2.51441753588651    1.94985076234559   -4.90332601065324
H         0.79359307410254    1.46604857982836   -4.67449867741794
H         1.82074051036212   -0.39537115686794   -5.05496258354579
H         1.68530583072594   -2.27219440630625   -2.22206460643031
H         0.78416686910449   -1.09242312593503   -1.31858015587553
H         5.83265297374531   -1.07914151115546   -1.12615415187474
