32
 energy: -49.285275854390 gnorm: 0.114812640463 xtb: 6.4.1 (79825abcba525fcdf90b791dcacef51065a7a4e7)
C         2.19830646031437   -0.90034408924604    1.36413395360059
C         2.46005088492717    0.06336986906461    0.20594697620326
O         1.37256840061672    0.99922879472227    0.16210180650697
C         0.93605256508834    1.66494069908761   -0.93613856610380
N        -0.27614990742088    2.08361352230675   -1.03707337317667
C         1.93782048148050    1.98438937642175   -2.10332601910347
C         3.37086493194786    2.33144857706798   -1.61356740084246
C         1.36544299405318    2.96258300171121   -3.15713703132816
C         1.26612351924130    1.82867994008988   -4.19366855019584
N         1.85657545166939    0.95669138322493   -3.19008539553858
C         1.97641044450945   -0.44270609006443   -3.25189555769431
N         2.19953942883910   -1.07356506709133   -4.36165286832488
C         1.86696706745362   -1.30881043696586   -2.01123439690905
C         2.84806750487983   -0.78745569141513   -1.01351790609920
N         4.08684127183017   -1.08287455337611   -1.27369802322366
O         4.93192120385846   -0.60869088374799   -0.27955981387241
H         3.18736222326152   -1.35083853655785    1.50411115393025
H         1.40139724566427   -1.63699788491089    1.22785255373848
H         2.06904942133824   -0.39601551955571    2.32805054728182
H         3.38545967558668    0.60755066264794    0.42630049882100
H        -0.88716605051419    1.86851728809613   -0.23700620858206
H         3.31841047940739    2.70831976893331   -0.58384644034151
H         3.81359043571397    3.12020768855644   -2.23351259995558
H         3.95160879038230    1.40776314883402   -1.68282904230543
H         1.94986094909551    3.81758916672953   -3.50360585228982
H         0.48465423448812    3.52054420062001   -2.81335644761856
H         1.88178264478808    2.04128126767486   -5.07846597650220
H         0.27330250854702    1.61256650508685   -4.58965982471560
H         2.13872204136700   -0.34088769324115   -5.06492588850946
H         2.18578267352339   -2.31508305956364   -2.31814987268813
H         0.83347786999504   -1.35156594329553   -1.65435800729479
H         5.85388505137546   -0.87143028238215   -0.46571564998507
