32
 energy: -49.291162583461 gnorm: 0.128451067166 xtb: 6.4.1 (79825abcba525fcdf90b791dcacef51065a7a4e7)
C         2.17019234292032   -0.28905245752739    1.67137705933482
C         2.32532192063634    0.38618615462930    0.30805778396835
O         1.06816422210862    0.92748119536508   -0.12429242487356
C         0.98512317356783    1.71267201168015   -1.22721123770510
N        -0.12502583006318    2.33083818559937   -1.42808281936312
C         2.03380913496154    1.87453039190486   -2.38564664746765
C         3.38956625031802    2.43624191663251   -1.87541846401792
C         1.46958336468232    2.67807235095108   -3.58187656524552
C         1.59951283534619    1.43698632669054   -4.48344293411601
N         1.99281301212587    0.68850644884987   -3.29969062688401
C         1.84228661320627   -0.68831550917170   -3.05844942217147
N         1.73688110168998   -1.43827148011117   -4.11001330545765
C         1.93935426934529   -1.29059671551356   -1.66949661038661
C         2.86868596855843   -0.64019187767253   -0.69835132192429
N         4.06950288422656   -1.13670471137540   -0.73060314052128
O         5.04115132250830   -0.63988430288851    0.12752844119303
H         1.46042631155535    0.25376405068031    2.30568974375105
H         3.11419437952757   -0.24281806545407    2.22184801252605
H         1.89185934630208   -1.34731386322493    1.61842964211899
H         2.91498680528386    1.30517920050007    0.40195638835988
H        -0.80999885442357    2.26078872069349   -0.66282494233870
H         3.95885827503411    2.85811885873883   -2.71389032280799
H         4.13073885799780    1.74878935629674   -1.45050553562927
H         3.16185864389315    3.22774720984120   -1.15644420135646
H         2.10245876345255    3.52628411114480   -3.85136882257044
H         0.41049860448964    2.95331776517043   -3.49314063942941
H         2.34737584489502    1.48402820659391   -5.28692905755387
H         0.62694923225331    1.28581904065446   -4.95299182161173
H         1.62673138319000   -1.04006801005597   -5.03974921082763
H         2.33954070113500   -2.29110874705671   -1.88687091585360
H         0.97515454258581   -1.25130361751799   -1.15368302197781
H         5.85170666776849   -1.00088318174152   -0.28037248458854
