32
 energy: -49.289691184959 gnorm: 0.113196629852 xtb: 6.4.1 (79825abcba525fcdf90b791dcacef51065a7a4e7)
C         2.09065064081562   -1.06971924920081    1.46526420837119
C         2.35197506542401   -0.08308627546359    0.32644169066491
O         1.13870486477114    0.62586761379732    0.03364090561932
C         0.99525557775674    1.55248596259031   -0.94648717766238
N         0.04334572008858    2.38473498241933   -0.70955088960633
C         1.90171897724757    1.91422479079838   -2.17749573663537
C         3.26775497048209    2.41652507310658   -1.63383214860224
C         1.27130891462328    2.88748776901323   -3.20235607901134
C         1.65822870970428    1.86766184235025   -4.28874746951956
N         2.06307422152614    0.90684862020123   -3.27429453477652
C         1.89863594153227   -0.48929363876220   -3.28982100140510
N         1.86243177026385   -1.25013142277420   -4.33822264417333
C         1.80910797448514   -1.13619327341060   -1.92056560965591
C         2.88143686506383   -0.67833179831546   -0.98767726269064
N         4.12907371523684   -0.79023394608202   -1.33467386363770
O         5.13350694634504   -0.38829087154555   -0.46468727401675
H         3.03498150645882   -1.45550876870132    1.86548392785782
H         1.42799665237517   -1.88126772487507    1.15129845327754
H         1.65413551516698   -0.53679540705335    2.31710727593328
H         3.08792997102318    0.67815480282241    0.60919996903618
H        -0.40080113339994    2.06135755979458    0.16100939456316
H         3.10898661489545    2.98757069085531   -0.70981475894527
H         3.79449268669713    2.99770313937917   -2.40015994796880
H         3.91162336567551    1.53791821058725   -1.54035035203263
H         1.78973221701181    3.82021404343796   -3.43447567265565
H         0.21915944780880    3.02958255199979   -2.92291878441556
H         2.42776996773639    2.15989179570403   -5.01642176538771
H         0.83967073443207    1.50720314233007   -4.91263851858256
H         2.06076588758682   -0.72706365145615   -5.18802939237177
H         1.69209929582001   -2.22711147997287   -1.98862090428093
H         0.83215136064274   -0.82474142324646   -1.53867263146745
H         5.98065616469753   -0.71653859040860   -0.82287013122157
