32
 energy: -49.285646397720 gnorm: 0.130774519564 xtb: 6.4.1 (79825abcba525fcdf90b791dcacef51065a7a4e7)
C         2.10236527935873   -0.97247929480401    1.26418585180642
C         2.40423410744921   -0.00907960269581    0.11553967243967
O         1.16541089161683    0.62446130353353   -0.23704427030698
C         1.00692690562955    1.78606422234104   -0.91925524165947
N         0.12584909117583    2.70050097878464   -0.71330159348469
C         1.89261216045341    2.08076981879994   -2.18283081083850
C         3.38527949504888    2.40046375492534   -1.89357314022054
C         1.21295872503512    2.95128062512826   -3.26693345484757
C         1.06464274807556    1.70344947373010   -4.15626910013284
N         1.61559963033269    0.90675664941572   -3.07095636199760
C         1.95392473857224   -0.44746536263653   -3.23862583384896
N         1.83190567637610   -0.99465480721571   -4.40696907482255
C         2.37452769739367   -1.38905291479417   -2.12603394666382
C         3.13894597703395   -0.73000453903581   -1.02552181749003
N         4.34513287609033   -1.18961800614742   -0.87256738467492
O         5.04963723765591   -0.60041360276160    0.16850552088675
H         3.00104993707697   -1.30338184575985    1.79676405863458
H         1.66240486438620   -1.91802218948297    0.93452056959708
H         1.30108617001247   -0.56744215725858    1.89194901792311
H         3.06054958362012    0.72548055074821    0.59589496906936
H        -0.53700440693182    2.62173056133357    0.07036609317209
H         3.52687375474600    2.76443643615339   -0.86761818418416
H         3.60655327320197    3.23397567221456   -2.57090220511410
H         3.91877431870515    1.47341376359603   -2.11988478504659
H         1.84245338962309    3.73667675729780   -3.69061955997295
H         0.26451953409970    3.44716782876599   -3.02228348589671
H         1.68777229862508    1.78145494231801   -5.05778264984693
H         0.02634148974207    1.43510643056703   -4.35408259986612
H         1.57131611321608   -0.38138446275472   -5.17579960337109
H         2.82901278271347   -2.29146599970188   -2.55906859080521
H         1.40293236783687   -1.63795134924863   -1.68860874579103
H         5.92156130167257   -1.03368328344219    0.24419655725743
