32
 energy: -49.287396862622 gnorm: 0.129962360603 xtb: 6.4.1 (79825abcba525fcdf90b791dcacef51065a7a4e7)
C         1.97530125604105   -1.03856922018368    1.35199564669578
C         2.38242971287778   -0.10195801797162    0.21372604288367
O         1.16826200010710    0.60866822365307   -0.07119431019917
C         1.05832724714757    1.62857794184144   -0.95863380095407
N         0.10721759333717    2.46434281119750   -0.73104397740496
C         2.01276250413121    2.03350118842212   -2.13888948289943
C         3.32170936515806    2.66632510583299   -1.59105557458772
C         1.12232529947747    2.88080919089741   -3.07920174132330
C         1.40715435565598    1.85822848834580   -4.19419018062117
N         2.04948810982882    0.99361045488371   -3.21642758032401
C         1.98709237819529   -0.40830045202484   -3.30155571547678
N         2.04337517444428   -0.97112831960364   -4.46748363825493
C         1.99955340865783   -1.29672566717023   -2.07196225808380
C         2.94442268479601   -0.84953926863568   -1.00563518998982
N         4.17827254659790   -1.19271641987088   -1.22782971056819
O         5.06542316723992   -0.76219140576222   -0.25062297175409
H         2.73320896910332   -1.82029014264518    1.47552079143493
H         0.98144916258859   -1.42216279401559    1.10418579716502
H         1.90756422224300   -0.51469142914363    2.31176314119494
H         3.11644034541732    0.62996854390582    0.56950932065296
H        -0.51738316606980    2.13553444715584    0.01827140451529
H         3.83095087277025    3.13418965792461   -2.44363077386440
H         3.99585602532058    1.92680271924684   -1.14260069924329
H         3.08898486463154    3.50891331412762   -0.93444321590931
H         1.47587811505666    3.89242005492062   -3.28959280781868
H         0.09101498471009    2.93005664229963   -2.70601498514033
H         2.07252499593566    2.38537870107821   -4.89168321983870
H         0.52189901700009    1.41400162880823   -4.65047206500464
H         2.04236395911866   -0.38473169702473   -5.29889556944116
H         2.08251400339195   -2.27084858280956   -2.57458256665785
H         1.01672160241531   -1.12641881052875   -1.62215569398502
H         5.93825331753581   -1.16567554280556   -0.42112635253287
