32
 energy: -49.285799957840 gnorm: 0.122338002454 xtb: 6.4.1 (79825abcba525fcdf90b791dcacef51065a7a4e7)
C         2.21465182926462   -1.02607407641198    1.46902379456043
C         2.40158791015051   -0.05948144706479    0.29880783455062
O         1.20049589812443    0.68339420956011    0.04212473181404
C         0.91925841806456    1.59361734367016   -0.92340601958227
N        -0.26066608946333    2.08273859432366   -1.07653392094852
C         1.95100769566502    2.04172511257918   -2.02003986833563
C         3.34889042669971    2.48123595965241   -1.50362523008960
C         1.39926552541196    2.97587370243887   -3.12364458507292
C         1.72327789292853    1.85344033743046   -4.12621998282573
N         2.12170698847664    0.96398307532847   -3.04626778533511
C         1.85657915942144   -0.41079686907250   -3.17347464741097
N         1.94101434618659   -1.09506464744834   -4.27073450864408
C         1.73100179975935   -1.22935411976678   -1.90243212487564
C         2.82340741273402   -0.80524790315967   -0.97691013711311
N         4.01480615784642   -1.02061689756687   -1.44989181841790
O         5.03593656618368   -0.40802727560389   -0.73620584704282
H         2.56060192885832   -2.05735946841066    1.33658842788601
H         1.15207140862227   -1.27322469100486    1.54735103593411
H         2.53577300094155   -0.53367746017624    2.39347858100513
H         3.15178059509257    0.66141877210557    0.64316759519947
H        -0.99280945399624    1.79590770099974   -0.41214795314022
H         3.23580835698363    3.10625169149609   -0.60826139217696
H         3.85760409765560    3.12835287981930   -2.22814503789033
H         3.96850608609441    1.58148748186622   -1.46138208653468
H         1.86283669325792    3.94964502470057   -3.29537608700325
H         0.32404907735294    3.16956752668948   -3.01553854166585
H         2.60845827830881    2.03844090942597   -4.75018509083634
H         1.01762387086555    1.50530495026825   -4.88124437301301
H         2.06928720311249   -0.42460795385802   -5.02514933228451
H         1.90908390941922   -2.26221381217887   -2.23396299492202
H         0.72503892182941   -1.15647922168303   -1.47814842235258
H         5.87372832248371   -0.54839699998215   -1.21797823766241
