32
 energy: -49.283619361897 gnorm: 0.129049141889 xtb: 6.4.1 (79825abcba525fcdf90b791dcacef51065a7a4e7)
C         0.89829122473859   -1.08451048903078    0.43411547337605
C         1.80708669473859    0.12269552185965    0.19875138604869
O         1.29004595939741    0.87613930832003   -0.90821015503335
C         2.08314060385555    1.88044559312760   -1.35789908543060
N         2.89575604697775    2.48948844582281   -0.56819498889583
C         2.09859591090926    1.94977800161271   -2.92725154592200
C         3.28031702748255    2.87592901238060   -3.32688825268714
C         0.73784943152212    2.34995146399986   -3.54630454995632
C         0.71069194703144    0.95270048961248   -4.19202142730857
N         1.93331419689635    0.57550754225148   -3.49985309146417
C         1.98902414592361   -0.62507090152942   -2.77046841886058
N         1.15716111592569   -1.58101269083271   -3.04159578887929
C         3.11972540352256   -0.89427978522433   -1.79558591873267
C         3.11511511719862   -0.44898810733833   -0.37027857057237
N         4.21382129245628   -0.50064493139142    0.32232717317230
O         4.30047971965049   -0.07068185519919    1.63949955103666
H        -0.14168029037147   -0.74091728162927    0.46836628153945
H         1.17310414225091   -1.63978254950972    1.33547363318238
H         0.96537423463081   -1.70598669154091   -0.46558285915081
H         1.91715695098824    0.77950722482204    1.06912645192150
H         2.71160884196570    2.15885578189384    0.38913799460576
H         4.21504401516644    2.31663220801230   -3.46320099062908
H         3.48872758495303    3.58485348512254   -2.51665989719670
H         3.12627628097298    3.45111130220827   -4.24378091086606
H         0.76448408373037    3.13291815166926   -4.30714243889067
H        -0.02902399355693    2.57909133868673   -2.79484284417030
H         0.74342719801055    0.91356191068285   -5.28951791772605
H        -0.16621004702425    0.35206597451830   -3.94811828297381
H         0.50705578742774   -1.52789475921007   -3.82239624843628
H         4.02470123150175   -0.48318847449722   -2.26510456750909
H         3.14834538664385   -1.98525804355308   -1.87455454163409
H         5.23811056436864    0.20119736056050    1.66466726247183
