32
 energy: -49.293829923432 gnorm: 0.123614415077 xtb: 6.4.1 (79825abcba525fcdf90b791dcacef51065a7a4e7)
C         2.36791817662265   -0.77960392623038    1.44666439220461
C         2.44587472983507    0.02467637726729    0.14831629678136
O         1.14685713265447    0.62074290315311    0.01553654708756
C         0.88422203878290    1.59825725626922   -0.88742457733138
N        -0.24909042687019    2.19517101186042   -1.00661516328952
C         1.93694812017907    1.99938430649183   -1.98231168809173
C         3.27629914740180    2.67115011485705   -1.57145956295898
C         1.28262230056338    2.87840468622676   -3.07509588161878
C         1.79911390883867    1.87973871363497   -4.12671406078302
N         2.10498864935319    0.95680836120568   -3.04467113699184
C         1.86740230217837   -0.42002315138870   -3.20081817901713
N         1.99181235279091   -1.01899994624321   -4.34321907300186
C         1.65646166041358   -1.29342391290542   -1.97851303894901
C         2.74902801456850   -0.90368977352086   -1.03818697552882
N         3.96926151722824   -1.22915939661749   -1.34580063618568
O         5.01313537205059   -0.71884254015070   -0.58604732133067
H         3.29364106614043   -1.30381290074924    1.70936620520476
H         1.54880645764665   -1.49336421205916    1.32057719719485
H         2.13899786042024   -0.13708465449801    2.30395918483273
H         3.25867536710155    0.74754568945941    0.28205079740295
H        -0.91458755600854    1.84827869292830   -0.30199194955772
H         3.79588709115300    1.98219884931014   -0.89287048430035
H         3.10646383423232    3.60046592511067   -1.01467689670955
H         3.84013889352258    2.87849534761487   -2.48488611064608
H         1.65191953905545    3.90329919777698   -3.15145897224282
H         0.18491647121833    2.87756171191767   -3.05677026223081
H         2.70630445885478    2.28596106819125   -4.59478529226316
H         1.18595363480724    1.50869553805079   -4.94864417236626
H         2.33699653843598   -0.51149456548993   -5.15463387518985
H         1.87799005866008   -2.27655494007443   -2.41760715748669
H         0.70354106824739   -1.04391447794412   -1.50209294505568
H         5.75854794392455   -1.31717419471633   -0.78620388965829
