32
 energy: -49.284663918313 gnorm: 0.140468992642 xtb: 6.4.1 (79825abcba525fcdf90b791dcacef51065a7a4e7)
C         2.16033129743166   -0.27617136695621    1.64547102852435
C         2.47708119953089    0.39605150360091    0.30889416965107
O         1.27799646716630    1.10632779372275   -0.03472751059787
C         1.00773371153390    1.69464231804808   -1.22665634647332
N        -0.20609426648194    2.08839668368884   -1.38940987941792
C         2.04262431534322    1.96308350827020   -2.37767922400110
C         3.48248361413821    2.27441154358184   -1.88390801720017
C         1.42090351222047    2.72410892650721   -3.57321254475438
C         1.65777884411816    1.50354869981921   -4.48102359813408
N         2.09543730586763    0.78127321720191   -3.29656174477213
C         1.78006770938477   -0.55452136071871   -2.99211293856475
N         1.51133070797071   -1.26934115778913   -4.03908187791913
C         1.75642199547295   -1.19854869321951   -1.61878691774452
C         2.85061399000602   -0.61294898501949   -0.78835096119942
N         4.03258088699975   -1.14576825381055   -0.88100245803154
O         5.10269552937821   -0.71630483023557   -0.10786803989679
H         2.99535319670013   -0.86454762580057    2.04210935282397
H         1.25676341079272   -0.88772290868417    1.56888438621824
H         1.89417975375516    0.44950261309068    2.42184111708009
H         3.32401860377741    1.07588324595601    0.45584878699988
H        -0.84513253421375    1.97232220902218   -0.59074137147637
H         3.93286322336650    3.03462383269982   -2.53532500787298
H         4.16245411633744    1.41642810947998   -1.94702213189904
H         3.50492255898807    2.49670699418041   -0.81370402480507
H         1.83097811024909    3.68612963022992   -3.88781627915039
H         0.39802592673267    2.81291266332912   -3.18445815809478
H         2.48167798701116    1.59908859344487   -5.20155416968724
H         0.77370682404402    1.12072967351828   -4.99197753464930
H         1.64292592617450   -0.84144541954265   -4.95269873139128
H         2.02333295922422   -2.25747624294948   -1.74470779112832
H         0.78104527941604   -0.90686858285488   -1.21772371929410
H         5.66652354717813   -1.51347201395853   -0.12591715379270
