32
 energy: -49.293608408221 gnorm: 0.131156487304 xtb: 6.4.1 (79825abcba525fcdf90b791dcacef51065a7a4e7)
C         2.05824182123329   -0.47070508252329    1.51956376265122
C         2.36130580070438    0.29489489422999    0.23089750669149
O         1.10277951727729    0.84565525746983   -0.18521199887433
C         1.00318707561285    1.79414406308388   -1.14973295085151
N         0.08165604542316    2.69173835044263   -1.15356220767860
C         2.03825208489376    1.89957052681375   -2.32677953320865
C         3.51216511815580    2.30016501401596   -2.04211408444276
C         1.45304658851783    2.73395082051555   -3.49139984376721
C         1.45524739808211    1.49737424218612   -4.40839036939478
N         1.90329348564961    0.73193331022451   -3.25533722150006
C         1.82372788990742   -0.65316064411456   -3.02800867908618
N         1.60141078133939   -1.50507097311229   -3.97887921528401
C         1.90296567418079   -1.32816299012324   -1.67174619807166
C         2.93786937252705   -0.63654416718726   -0.84685542462990
N         4.16867890337309   -1.05421091985839   -0.83311394630649
O         5.09157170694730   -0.49907333439608    0.04290668925814
H         2.90224685713621   -0.41469546758321    2.21619033861475
H         1.89626767391283   -1.54248360365180    1.37344425179982
H         1.13249014597246   -0.11091192371136    1.98186518852494
H         3.00895343230405    1.10104695628843    0.59385926796138
H        -0.54121413040934    2.63310826020747   -0.33606000969904
H         3.94760149087350    1.35510770786307   -1.69229916035364
H         3.46026778336393    3.05913942783387   -1.25233983262523
H         4.13331505224711    2.60767580851609   -2.88761111846088
H         2.10673866363093    3.56241814218464   -3.77237867744383
H         0.45134194195353    3.14225525436199   -3.30386339082259
H         2.21525139678337    1.54580240004101   -5.20031878076762
H         0.52657550255852    1.25210380823922   -4.92474159625912
H         1.47255109189438   -1.05745624252778   -4.88339237584226
H         2.14435663184497   -2.38234553009983   -1.86886208019829
H         0.90176552432044   -1.27366757548574   -1.23366260798349
H         5.95401565413056   -0.89795194538131   -0.18245882443029
