32
 energy: -49.268544656211 gnorm: 0.121357158048 xtb: 6.4.1 (79825abcba525fcdf90b791dcacef51065a7a4e7)
C         0.88344510199221   -1.40976859550331    0.22527626660194
C         1.76787602326276   -0.16312396762970    0.17720406174815
O         1.12146621805454    0.78524814253011   -0.68483841184907
C         2.02819175837591    1.70322278080040   -1.10319435455651
N         2.88066879497362    2.31412616142810   -0.35821814664002
C         2.11799186035461    1.86457141984301   -2.66326342355296
C         3.47806620180610    2.42812178273148   -3.15979013208005
C         1.00162964046066    2.55515873722996   -3.48291025199054
C         0.99083483047570    1.25925580351545   -4.31388386952843
N         1.89371251270055    0.57886536489383   -3.39842911269536
C         1.83779891929759   -0.66858347664835   -2.75248851975653
N         0.94062634122907   -1.60134572435153   -2.68640675117542
C         3.09804376449573   -0.95511907604594   -1.95811142060276
C         3.08844941533028   -0.47484443195435   -0.54423333658622
N         4.20578800286319   -0.08259637071126   -0.00830201739722
O         4.05933454661683    0.71506311244230    1.11846848010831
H         1.39322989198339   -2.27277328573211   -0.21756968358092
H         0.04185943742196   -1.16865949110737   -0.43038805738611
H         0.60869218975226   -1.67825760393657    1.25124623651965
H         1.95155218016822    0.32703155265162    1.14005424627340
H         2.70382486041279    2.19894967764984    0.64934087528705
H         4.21322155645102    1.62991217411270   -2.99390869981260
H         3.75165564364948    3.32510301054996   -2.59141318432806
H         3.26656454568736    2.65768360470650   -4.20756100228597
H         1.30323424127742    3.53080794129648   -3.86990355987602
H         0.00346329639961    2.68439456162151   -3.04443942505104
H         1.43758545809821    1.37250565252218   -5.31122549385189
H         0.03097483835679    0.74702532660756   -4.38802158987422
H         0.06568687931233   -1.32532462534660   -3.12618068000588
H         3.93703048130473   -0.40836124965900   -2.41152321567837
H         3.29296105594108   -2.02071721747075   -2.11237276336688
H         4.94298710080770    1.03956986092982    1.37838549817090
