32
 energy: -49.283867040137 gnorm: 0.122685438867 xtb: 6.4.1 (79825abcba525fcdf90b791dcacef51065a7a4e7)
C         1.64496331953375   -0.84424995728758    1.18939477589589
C         2.17364849042498    0.17963117946831    0.18400371196094
O         1.03240287147215    0.82199822440704   -0.40361475173776
C         1.00790749355402    1.79252616987606   -1.35088755805714
N         0.14272163089985    2.74453618584542   -1.35720650931592
C         2.13315169323474    1.90952123481907   -2.44086488353742
C         3.59199412790831    2.20701335981434   -1.99678476698331
C         1.74676726818351    2.68646952375820   -3.72229174756033
C         1.25210193193393    1.32524134872531   -4.24417503315478
N         2.02571807910465    0.63640096864691   -3.22280649412305
C         1.74620758026990   -0.69319245728473   -2.86149025685191
N         0.79401470605722   -1.43547981258290   -3.33230772125814
C         2.72205015359927   -1.39524851438056   -1.93617773550182
C         3.12650715879535   -0.57970062275577   -0.75249569906484
N         4.41930937997102   -0.58778630480336   -0.61787234177699
O         5.03021786845590    0.08194512497077    0.43358932425885
H         0.87916850923350   -0.33583126730388    1.78591711601238
H         2.40552455397938   -1.26798141054409    1.85143253094077
H         1.16011454818799   -1.62885218705920    0.59820031048092
H         2.72774770801526    0.96564842346861    0.70957080600251
H        -0.60713049450794    2.57119193688382   -0.67354859438361
H         4.23138818536673    1.92346414179880   -2.84288387353952
H         3.92978560962067    1.59783015043097   -1.14986589110759
H         3.76082270238680    3.23241531425645   -1.65722165804002
H         2.45626226077104    3.36118188833432   -4.20602783695966
H         0.92835454527548    3.41503652691832   -3.65384207894984
H         1.60194305994680    0.95331551496990   -5.21699790504287
H         0.18823277751161    1.21806011099488   -4.02992685135797
H         0.24685027893612   -0.96795063062963   -4.05142897348547
H         3.69529314610046   -1.58262698467860   -2.41169058301410
H         2.15459664658726   -2.28531220372898   -1.64795584296609
H         5.98808285846211   -0.01430750778089    0.26947530010456
