32
 energy: -49.293467180277 gnorm: 0.118732441202 xtb: 6.4.1 (79825abcba525fcdf90b791dcacef51065a7a4e7)
C         2.16719540559590   -0.95764413979851    1.33162115045110
C         2.45237360267595    0.05067916787612    0.21779471480836
O         1.23814381411078    0.79679937340039    0.04655466650528
C         0.97622129325802    1.73552929846826   -0.89686096687050
N         0.11138165232113    2.65841268773759   -0.66181147860778
C         1.84108058036668    1.93748631220754   -2.19267914554875
C         3.29730432567273    2.36162942891251   -1.85586314507601
C         1.19003614555500    2.93455012546267   -3.18111290885997
C         1.23663966135472    1.83184833520029   -4.25436729442355
N         1.67168756971545    0.88205050378511   -3.24204615947792
C         2.02453888664487   -0.47597554177120   -3.33011105199235
N         2.30752207231979   -1.09833451799180   -4.43098374988710
C         1.93458341764644   -1.26151103313122   -2.03543089071150
C         2.88751237219796   -0.81168930108422   -0.97741678287679
N         4.13459568504114   -1.17550465777103   -1.02155340769992
O         4.96109222028453   -0.73632512605729    0.00379815981094
H         3.12320130728354   -1.42858440812520    1.58664692547718
H         1.45069213311979   -1.70079491154037    0.97017166861650
H         1.92286160014625   -0.41329655173471    2.25041197901858
H         3.33604284080742    0.57158050153595    0.60361892207893
H        -0.47225781511555    2.47871800187832    0.16691608859059
H         3.25292568009245    3.16517329084561   -1.10923310180457
H         3.70002811776857    2.85040512979424   -2.75106743850079
H         3.89557105785299    1.48388464863139   -1.59721978184079
H         1.71116881737210    3.84626466675443   -3.48080919848886
H         0.16592434925529    3.22172339503835   -2.90904458678908
H         1.97905693841056    2.05658236289819   -5.03245030758623
H         0.32977226626884    1.46087528684308   -4.73309289353014
H         2.27315623474944   -0.51416498518146   -5.26325339832305
H         2.27831491085459   -2.26860863280413   -2.31116297639617
H         0.85799388943743   -1.31424961287220   -1.84711640218892
H         5.85924360397027   -0.92036392918055   -0.33259020862920
