32
 energy: -49.288785661170 gnorm: 0.130018373887 xtb: 6.4.1 (79825abcba525fcdf90b791dcacef51065a7a4e7)
C         2.03311940503685   -0.86244278548329    1.35117697276157
C         2.49645066358940    0.14013960421992    0.29344141329731
O         1.33269837344124    0.97223598542875    0.17652814984320
C         0.97579715089800    1.57101041149163   -0.98706156670430
N        -0.17514925634901    2.14565731759609   -0.98346904169612
C         1.96216872482328    1.89892275441917   -2.16496545201401
C         3.27185139684318    2.53750203685284   -1.62563456664486
C         1.20016967424202    2.77088812500955   -3.19162520228186
C         1.87946184803119    1.89173379690634   -4.25729302782895
N         2.20393319974443    0.89423256227528   -3.24938116079296
C         1.78919184375828   -0.44753550208843   -3.18502043472202
N         1.53744039218536   -1.21373517836899   -4.19936265674715
C         1.83037462712562   -1.17607427591274   -1.85502421244195
C         2.90395978886139   -0.63853971390864   -0.96717370098125
N         4.09875994106404   -1.08446549178825   -1.21842901326516
O         5.20330692538348   -0.59775807657108   -0.53256250556465
H         2.83594783055560   -1.52226374776430    1.69884488726708
H         1.29235123778593   -1.48375362210498    0.83977585513438
H         1.69148212497841   -0.33412315648095    2.24803383335883
H         3.29000662632139    0.80823039184172    0.64698556932062
H        -0.71909718793817    1.97806006695116   -0.12571243528837
H         4.02615521188067    1.80824511156185   -1.30265049330059
H         3.08318834911191    3.22100325945869   -0.78914715275731
H         3.63187943131989    3.02424399320038   -2.53597376907082
H         1.48893078984759    3.81736158207889   -3.07275192268861
H         0.11912083613942    2.58195235963888   -3.16110772107548
H         2.87413229523097    2.22485475741912   -4.58403927711684
H         1.37696456174369    1.52442127112042   -5.15271787731840
H         1.49478640398477   -0.90147929179902   -5.16672231770502
H         2.04791247547395   -2.21259747140354   -2.14951027843986
H         0.86794324850917   -1.22219122367973   -1.33648030669644
H         5.87053540163571   -1.17765628337626   -0.94756558281097
