32
 energy: -49.283888867431 gnorm: 0.128426370560 xtb: 6.4.1 (79825abcba525fcdf90b791dcacef51065a7a4e7)
C         2.23619827919047   -0.55205440373464    1.53622759179112
C         2.47376771458823    0.21592461869671    0.23529684974364
O         1.22954045361129    0.82879916753856   -0.13437300228841
C         0.98323213969302    1.68520732569037   -1.15699101803455
N        -0.15052203597346    2.09730884802479   -1.60385051695106
C         2.09996051270466    2.01435260343190   -2.21173937544027
C         3.46031607926293    2.59542754405684   -1.73664505399643
C         1.58595185451169    2.89841603268003   -3.37330011814833
C         1.57488603725152    1.61951578326435   -4.23020723221686
N         2.05643274487511    0.81981759851515   -3.11451360425820
C         1.73459229492082   -0.54712937149163   -3.04841595782283
N         1.38126360537887   -1.18701067534449   -4.11848213064276
C         1.82799886376523   -1.30511541266062   -1.73765776140956
C         2.90441685241152   -0.79985531262154   -0.83441717122042
N         4.13382966134439   -1.19302560974573   -0.98767411798055
O         5.03436812162902   -0.83047880145226    0.00475286141748
H         3.18929068755286   -1.03315212687644    1.78306763161200
H         1.36531213317253   -1.21342686179438    1.51526275791595
H         1.99701939471286    0.18718015037009    2.30857183197014
H         3.24481420255227    0.98169197571506    0.37727397012544
H        -0.97866333399671    1.89117503941257   -1.02817228332517
H         3.24196602523817    3.59171179654855   -1.33062835400558
H         4.02644012841957    2.59626312313223   -2.67578387547045
H         4.09854550855220    2.12431243867325   -0.98433587048075
H         2.22385799739397    3.68468024487645   -3.78254927585041
H         0.57229055935717    3.25559246980468   -3.14922334155538
H         2.14063372517953    1.69000718647814   -5.16938904903210
H         0.54701238982068    1.32237106418394   -4.44089291808036
H         1.21747691875207   -0.79257833970396   -5.04190232894115
H         1.95036730821492   -2.37072209121887   -1.97835144309669
H         0.86560177160950   -1.18933799742825   -1.23003965663957
H         5.89518797566660   -0.78807449682198   -0.45447951619161
