32
 energy: -49.291853873642 gnorm: 0.119067977249 xtb: 6.4.1 (79825abcba525fcdf90b791dcacef51065a7a4e7)
C         2.23878079385608   -0.92182728893122    1.32956307709605
C         2.56577097026601    0.05188820203216    0.19659909857102
O         1.40428088655546    0.88787600897505    0.08507491698797
C         0.95367070076363    1.56140624527427   -1.00265565185141
N        -0.26136789240877    1.98358034979400   -0.98368656748342
C         1.95842113261949    2.00197454712931   -2.12706174843929
C         3.25936173040371    2.57849571652914   -1.50327742990053
C         1.22917360750362    2.92470292352055   -3.13292793030920
C         1.56542473640042    1.87563986848291   -4.20828832808948
N         2.19979293028748    1.01169951200836   -3.22474333350646
C         1.96980876840369   -0.37442296333821   -3.27234571584375
N         1.80287058473955   -0.96115987927988   -4.41567520031660
C         1.82375846838757   -1.17951519444174   -1.99490667430563
C         2.89461786452179   -0.83927952350066   -1.01138907713732
N         4.10984318304843   -1.24748056931221   -1.22615817438975
O         4.93571881705384   -0.70368901331407   -0.25171412564051
H         2.85667145862297   -1.82644757179080    1.30419713975725
H         1.17139311131257   -1.14871798316818    1.25540188840174
H         2.52212516045422   -0.57575012962715    2.32963130323921
H         3.43804351541239    0.68524285847178    0.39426628438373
H        -0.72786788475644    1.54906280349416   -0.17542494788405
H         2.89619396660592    3.17319600064768   -0.65501486961694
H         3.78185062896976    3.10463741140970   -2.31115064228481
H         3.92111931811009    1.81430531507014   -1.08692987239876
H         1.64602496079471    3.92170674360068   -3.29053142114396
H         0.15307540269724    2.99853882724154   -2.92834167369073
H         2.25442069179795    2.01597919305359   -5.05249886114846
H         0.68112163061273    1.50320591816306   -4.72646652555617
H         1.88810169068490   -0.26992205326814   -5.15731780381722
H         1.92233089841104   -2.23800211043849   -2.27475308294643
H         0.82673328402978   -1.01733972201320   -1.57427785141813
H         5.82399926932841   -0.93200988627914   -0.58717014483063
