32
 energy: -49.290874642726 gnorm: 0.121137377090 xtb: 6.4.1 (79825abcba525fcdf90b791dcacef51065a7a4e7)
C         2.01109920263456   -1.16462484226110    1.18532224050833
C         2.28924115174171   -0.05914307424104    0.16591117156402
O         1.03354317433026    0.54070342455656   -0.18591159448930
C         1.01584270629077    1.62078963794232   -1.00624736812437
N         0.07921668178928    2.49015951414602   -0.85847285738604
C         2.04768584711817    1.92959725125983   -2.14986029687031
C         3.43091520422624    2.37176749226302   -1.59750895486836
C         1.40145043990900    2.93049682872233   -3.13757292441162
C         1.31325772783671    1.79062161080760   -4.16854559050183
N         2.12126303519568    0.95991639726486   -3.28920892446691
C         1.91642534362071   -0.43095009057497   -3.29432324677351
N         1.36814793936122   -0.96594715849301   -4.33955092835439
C         2.18625590495567   -1.28709206663779   -2.07138944619010
C         3.05015779446743   -0.67038397572926   -1.02107916623884
N         4.33838634275088   -0.84236293795447   -1.04149671205304
O         5.05599507927195   -0.34566511325392    0.03815600488519
H         2.96405513790705   -1.66210407226565    1.39783003868085
H         1.35170499929669   -1.99522486121055    0.91774305059351
H         1.62807771728091   -0.65227513925512    2.07469404900912
H         2.97038313781692    0.69182338267337    0.58204193824544
H        -0.61843332820946    2.30065734870868   -0.12560999376720
H         4.15433986946558    1.54607854247672   -1.59927871922678
H         3.47938941434151    2.75464866879125   -0.57109232193497
H         3.89146431825463    2.96561535684951   -2.39154585550242
H         2.02241316981232    3.75366807534614   -3.49731577332039
H         0.39057936217980    3.29591873514280   -2.91418733773615
H         1.80851773277025    1.94026744588073   -5.13778530759499
H         0.28573580577376    1.46833753546593   -4.34041574513392
H         1.13701331975926   -0.33368638321432   -5.10239489730123
H         2.60855963264087   -2.22415879846110   -2.46124914818604
H         1.24156707803344   -1.41400611665232   -1.53403987083806
H         5.93494750990827   -0.76996272719086    0.07158475879048
