32
 energy: -49.285105069191 gnorm: 0.130633928260 xtb: 6.4.1 (79825abcba525fcdf90b791dcacef51065a7a4e7)
C         2.36766318081359   -0.65752597717011    1.51956433932488
C         2.55215603122757    0.10524947955644    0.20701423842171
O         1.31034452220497    0.80649879178965    0.04414612499913
C         0.81339162716190    1.54296404799976   -0.98079632222056
N        -0.37535673122767    2.01499501366709   -1.11854126237231
C         1.83895491352746    1.97685048472280   -2.08889172100559
C         3.28789319637229    2.35227186609091   -1.67227846022595
C         1.33678333315348    2.94970877283883   -3.18267727130235
C         1.54776768721557    1.85693258986759   -4.24631438782317
N         1.94249474846587    0.95282590166617   -3.17722209605068
C         1.85501093706033   -0.44744400959038   -3.26713850532103
N         1.90894175667872   -1.02819020756390   -4.42435766308337
C         1.78288753243212   -1.14140623069506   -1.92007899375186
C         2.89910791713317   -0.79094449668503   -0.99215894785953
N         4.10831337655551   -1.20787127215714   -1.22350419412205
O         5.08927560495173   -0.90982954194943   -0.28744584194084
H         3.35858225255466   -1.09007199048599    1.69775945365672
H         1.54260801064218   -1.35825904028410    1.67625786058152
H         2.24001520401305    0.04708184134548    2.34867452436862
H         3.38723269194078    0.79412449031905    0.37780067546116
H        -1.03369016854008    1.86242497259432   -0.34198859589081
H         3.92732367991391    1.58583630688140   -1.21531697576428
H         3.21318537475253    3.18300734716534   -0.96039633612731
H         3.76740281554485    2.80606434095621   -2.54371307354683
H         1.90255187647743    3.87422845812793   -3.31605580240587
H         0.32843419385665    3.32900178596906   -2.97133999026716
H         2.45107180716178    1.96018533991967   -4.86314703411942
H         0.61748465568963    1.68104039841507   -4.78746416983401
H         1.99436669273402   -0.30705768867259   -5.13694330262716
H         1.82754446654104   -2.20683093144670   -2.18710154729837
H         0.80659672993311   -0.96721235386427   -1.45769229093318
H         5.95220357905239   -1.29664096663741   -0.53123992045343
