32
 energy: -49.280531105060 gnorm: 0.137355854100 xtb: 6.4.1 (79825abcba525fcdf90b791dcacef51065a7a4e7)
C         1.98799330892764   -1.18425901423744    1.11896501988865
C         2.19265489666510   -0.04068618495020    0.12447689593511
O         0.96831830045395    0.60307485973562   -0.25885599643825
C         0.96800810903515    1.67064970337561   -1.09559621470962
N        -0.00000508516428    2.51455624793659   -1.02021843763229
C         2.13623098837820    1.98408759536941   -2.09805567196275
C         3.55276201548665    2.29811317739045   -1.54239591277318
C         1.69037245806775    2.99284162177649   -3.18369921092437
C         1.36080861874164    1.74845212636028   -4.02802175890259
N         2.04906162112534    0.86965469457305   -3.09517687030890
C         1.71896790670053   -0.49482922881631   -3.17078100674293
N         1.16383556699690   -1.08632498266285   -4.18137080269709
C         2.25338241770331   -1.39856097872060   -2.07578111495888
C         3.01182811833098   -0.69317654773126   -1.00014179264879
N         4.30974177959223   -0.69377608298281   -1.07047101877209
O         5.03725952766778   -0.18446128302289   -0.00340149147164
H         2.94470410243464   -1.66940515577520    1.34281282725567
H         1.31655176207669   -1.86516256296251    0.58808618065026
H         1.54435750291509   -0.80498104881156    2.04607093887224
H         2.84452062981285    0.71166842115089    0.58284732917749
H        -0.66968287635165    2.20559889723985   -0.30203210961989
H         4.24474858596532    1.56898704704960   -1.98357421584005
H         3.67676227889587    2.23057880698067   -0.45494849012609
H         3.67912078856690    3.34652051600248   -1.82546991072326
H         2.50242261992585    3.67896817501409   -3.43355001490678
H         0.77494825935029    3.42329374820384   -2.75707977963970
H         1.70426977657506    1.72973703017760   -5.07147092218999
H         0.30004532318538    1.64604155897171   -4.25932455211756
H         0.98078677226994   -0.42784733840551   -4.93503396013577
H         3.01641506177866   -1.99544061621880   -2.59533956135473
H         1.51257140526837   -2.12406897896958   -1.72631595963552
H         5.92697864967404   -0.30556248774440   -0.38737767038424
