32
 energy: -49.286402880960 gnorm: 0.125231130722 xtb: 6.4.1 (79825abcba525fcdf90b791dcacef51065a7a4e7)
C         1.72622845757873   -1.20404762615005    1.00178006629004
C         2.28585712329311    0.00321552415962    0.24813341810024
O         1.04558487943746    0.57502124898329   -0.19360800107884
C         0.98330803854361    1.65365288057966   -1.01368466515548
N         0.04202536518623    2.52965212129174   -0.97467361235567
C         2.10325038812068    1.85942165280765   -2.09595141248042
C         3.41385723899795    2.35007386812077   -1.42104396718656
C         1.66627249987524    2.91402343667765   -3.14087333017081
C         1.42782114763300    1.73390936870674   -4.10028452616091
N         2.07141715150080    0.81754085580850   -3.17172132272802
C         1.83014615002446   -0.56711112858124   -3.13976206720314
N         1.23914180305732   -1.17604605716907   -4.11917157714052
C         2.25252613468385   -1.40179029329152   -1.94550056168280
C         3.02927663940160   -0.59928960764973   -0.95431019359442
N         4.30422752367985   -0.66050382470480   -1.19982904216686
O         5.21470044880039   -0.04752988694045   -0.34975667943688
H         2.55760197049987   -1.89765734826491    1.17058113804368
H         1.01190771001753   -1.70784318695083    0.34433680649580
H         1.21273177373755   -0.92612689652197    1.92874884395542
H         2.83250773542041    0.74737610451815    0.83844518164727
H        -0.50216692619733    2.28423435450437   -0.13602024960027
H         4.08273967565989    1.62905015590326   -0.93336610317585
H         3.13513484554317    3.23197456547255   -0.83193969214638
H         4.05602828464903    2.82233508337239   -2.16926924093746
H         2.48587362150260    3.57211658757989   -3.43716363222521
H         0.76214066783490    3.45354757452859   -2.82982033454500
H         2.03926490402891    1.83638981768939   -5.00733263171797
H         0.38425733045309    1.53443678560551   -4.34603423569855
H         0.83105930461680   -0.55030433626758   -4.80984066893504
H         2.93660097548899   -2.18535107687094   -2.30116782165299
H         1.34355572113362   -1.93717491329670   -1.65494108069115
H         6.10545286140949   -0.24418195413850   -0.69845630177773
