32
 energy: -49.287838828902 gnorm: 0.122902666687 xtb: 6.4.1 (79825abcba525fcdf90b791dcacef51065a7a4e7)
C         2.13379280104821   -0.77678015292750    1.45123164057349
C         2.55249424132717    0.13177334627521    0.29456770978170
O         1.34775134799877    0.87638920897648    0.06108483507890
C         0.91790039750613    1.58440543680803   -1.01306202807764
N        -0.32792440762764    1.90450573539159   -1.03219128022381
C         1.95110633053220    2.05137949355492   -2.10041369267256
C         3.39308555684569    2.38815548373817   -1.63008634539379
C         1.30249789862409    2.93734026692736   -3.19099931016301
C         1.56408286763577    1.84921386372824   -4.24814278992004
N         2.13755085621381    1.03671667861771   -3.18646511094218
C         1.85516202896929   -0.34010220845986   -3.21993952012100
N         1.77245590512554   -1.04186790758106   -4.30622469661884
C         1.77597699294765   -1.07002118024791   -1.89242201115466
C         2.86739857589458   -0.74777475538745   -0.92559048678096
N         4.06244573738221   -1.17243201495953   -1.21029195189290
O         5.16481992075233   -0.75237695801597   -0.47841359961055
H         3.00422632315999   -1.35930188201313    1.77338700687870
H         1.37687488597204   -1.53237891504935    1.22223052641034
H         1.74573162432295   -0.22095952897123    2.31184877024146
H         3.41156909787780    0.78523007431516    0.48444799496875
H        -0.91041160353786    1.32934776586849   -0.40799855584997
H         3.81818828003655    1.48429525175800   -1.17463824040601
H         3.41086785682452    3.18569614469525   -0.87769579871466
H         4.09503433831920    2.60601013029468   -2.43944573587547
H         1.88837528344748    3.79853532426697   -3.51919329367800
H         0.26583444379258    3.21269203516405   -2.95689483263353
H         2.30156077441200    2.16818344500788   -4.99746696570120
H         0.70710773851736    1.37739544220751   -4.73000239844783
H         1.75417736675656   -0.41594143285954   -5.10809112530746
H         1.87876052051917   -2.14711721707368   -2.08665064082625
H         0.85265127881957   -0.77732568062523   -1.38341543745013
H         5.92427524952630   -1.27333895812934   -0.80326667448498
