32
 energy: -49.297086741907 gnorm: 0.115087898421 xtb: 6.4.1 (79825abcba525fcdf90b791dcacef51065a7a4e7)
C         2.46189890847497   -0.73612252070321    1.47029427160379
C         2.53235695902498    0.06060388366660    0.16687012157191
O         1.24415868780743    0.67381698295343    0.00911269814128
C         0.92678455610061    1.61961896319513   -0.90989905565873
N        -0.21690171039685    2.20128816604303   -0.81742060575556
C         1.85863029357217    2.03288562656862   -2.10521789909810
C         3.27366007621789    2.48373544875818   -1.64875855470748
C         1.18868693978817    3.00390322988716   -3.10686510150290
C         1.35720055049712    1.94960296998012   -4.21594229774644
N         1.84154258489270    1.01924372860164   -3.20796354678261
C         2.05467909186433   -0.36093091918019   -3.36978127711829
N         2.12474103267983   -0.92747987397939   -4.53315760179434
C         1.87185509325296   -1.20032021702877   -2.11943904399366
C         2.84249791359754   -0.82910902486909   -1.04712295135842
N         4.03653815655908   -1.33982426711055   -1.10156822900970
O         4.93270858754354   -1.03283148679758   -0.08670123634615
H         3.37222749688449   -0.54935235705742    2.05097398589271
H         2.45079352734593   -1.81744110557979    1.30621343275726
H         1.57353126230025   -0.42308564978473    2.02975895617702
H         3.42443017533116    0.69717333114003    0.15948382742592
H        -0.88284387758682    1.78304113471679   -0.15311266883102
H         3.23853296302837    2.79784857225402   -0.59746998771686
H         3.58446690202394    3.37090689313475   -2.21338657559545
H         4.00123808751861    1.68363503930062   -1.80914851497386
H         1.81120622275039    3.89244778760772   -3.23168035240637
H         0.12885731154793    3.19942541125032   -2.89751643615437
H         2.14464185449404    2.21406802737778   -4.93503645200246
H         0.53409169804565    1.52665124537261   -4.79284032060768
H         2.26063914854909   -0.26332220333109   -5.29179724737706
H         1.99084320151454   -2.24021902841427   -2.45541134186627
H         0.82225583375274   -1.12353693214803   -1.81988197156728
H         5.75316380488545   -1.43650789600721   -0.42963259495726
