32
 energy: -49.287785019615 gnorm: 0.131056196453 xtb: 6.4.1 (79825abcba525fcdf90b791dcacef51065a7a4e7)
C         2.38944781657915   -0.95033652408719    1.30591764115159
C         2.50324642190502    0.10106366926509    0.20126415507214
O         1.25327218149940    0.79121185462818    0.05418469508519
C         0.93249313045154    1.63541312566093   -0.95788018948536
N        -0.12259667640424    2.37043723607458   -0.92000327037609
C         1.85451616386217    2.05435745080475   -2.15882653590954
C         3.19131353831481    2.60614446918018   -1.59099393281792
C         1.18322212907772    2.89350477405751   -3.27246583340216
C         1.47800164048111    1.81183496395309   -4.32749832743220
N         2.12085581100239    1.06864893748624   -3.25484286063938
C         2.03066764050398   -0.33240422500937   -3.32839801928832
N         1.92364855265095   -1.07030714667661   -4.38829286120116
C         1.92708604322851   -1.07938113932572   -2.01209597700719
C         2.98095034277636   -0.68213627811267   -1.03159936408479
N         4.10648918694014   -1.32619307687093   -1.12036646047051
O         4.96732856627452   -1.10687563598376   -0.05351293476039
H         3.34170358758041   -1.46753616800268    1.46865558001327
H         1.50974337435822   -1.57579102556635    1.12921875913340
H         2.16563683022926   -0.50551296127927    2.28174064216029
H         3.22977465329802    0.85095880478588    0.53425643135425
H        -0.68769591205989    2.22355451303137   -0.07218082073336
H         3.06149873196405    2.61626805290358   -0.50096904535440
H         3.30638661170904    3.65430277119238   -1.89199430189986
H         4.07772133569534    2.05017587652102   -1.90790955151631
H         1.57354099633678    3.90584214576738   -3.39674278256063
H         0.12161432282552    2.97972942477381   -3.00629144396588
H         2.05859730638039    1.99572565519128   -5.24193523675896
H         0.58038523099258    1.26985288136836   -4.62707783905481
H         1.98884738356078   -0.47778710761624   -5.21277872615771
H         1.89897279642740   -2.16838494799449   -2.15942363478127
H         0.95205965872629   -0.92408750482178   -1.54040099160221
H         5.69692705726374   -1.70454832646522   -0.30684418212499
