32
 energy: -49.281780881868 gnorm: 0.127354229590 xtb: 6.4.1 (79825abcba525fcdf90b791dcacef51065a7a4e7)
C         2.45453244750268   -0.79751680695817    1.40132611740258
C         2.50196742073353    0.15129297038384    0.20292645526329
O         1.29138301634423    0.91359175415021    0.08562998589328
C         0.94866078131983    1.61215883843079   -1.02540369013610
N        -0.27276692507861    2.01422319631182   -1.06239303098144
C         1.95864253489205    1.97843142607708   -2.17156868652898
C         3.35485068377566    2.47110207205760   -1.70060327969232
C         1.31221486591463    3.00607291855937   -3.13129814680296
C         1.41074289389403    1.93908549056247   -4.23666150643399
N         1.95931678152891    0.98113951174807   -3.28925300508381
C         2.00308994740924   -0.42379493548549   -3.31640654619245
N         1.84723356616234   -1.22070798934142   -4.32634181404889
C         1.83002315153039   -1.09956890983345   -1.96928660142209
C         2.89852364432563   -0.72455547320635   -0.99590144042105
N         4.01500118819969   -1.38855527632199   -1.04182104743495
O         4.89877249434777   -0.95189795657782   -0.06427325303422
H         3.46083991267274   -1.16940331324886    1.62452082240885
H         1.78580569764328   -1.63148161275211    1.16980295978165
H         2.01328255974108   -0.18211644056827    2.19301470433285
H         3.28651077645401    0.89768748010990    0.37161790281846
H        -0.85289529781227    1.93959635050878   -0.21528236036529
H         4.09672557828215    1.69084299327705   -1.91490687251886
H         3.36392564746015    2.60352785259461   -0.61209057271396
H         3.77167872518669    3.42366068785296   -2.03845209905139
H         1.84673568275572    3.95020029314324   -3.25592370528512
H         0.25570114040150    3.21055649401890   -2.91390485381347
H         2.13658110196145    2.21941258174429   -5.01234029895507
H         0.44807305874003    1.75187051731699   -4.71355248835792
H         1.98002340057316   -0.83307912067430   -5.25758750608341
H         1.96111711972343   -2.15184169379703   -2.25904763836795
H         0.80355548262232   -0.85034279635324   -1.68373591151393
H         5.71182296522198   -1.12100290881998   -0.57813682582689
