32
 energy: -49.292604346622 gnorm: 0.134260009780 xtb: 6.4.1 (79825abcba525fcdf90b791dcacef51065a7a4e7)
C         2.13912958112204   -1.00142953441739    1.36020194560243
C         2.35685498374603    0.03470568675381    0.25672050969770
O         1.09721499946614    0.59139063458995   -0.14797875250821
C         1.04670683164799    1.69006461715712   -0.94183941700637
N        -0.02059518500841    2.40690981865556   -0.98553135175761
C         2.02484296981836    1.96264398573973   -2.14053169129140
C         3.35994726497392    2.46119103185050   -1.52176084094530
C         1.41086979548546    2.90579771021499   -3.20283786389687
C         1.52812170949675    1.76408761585494   -4.22887302495525
N         2.06279782537564    0.89582214358978   -3.19136966732124
C         1.81480379355384   -0.48801047692082   -3.19069156260175
N         1.49800367308430   -1.12163143299854   -4.27581507920136
C         1.95353398220016   -1.29854141478961   -1.91587853963508
C         2.93404778255142   -0.74549230454724   -0.93478913540582
N         4.18552539040736   -0.97360338954288   -1.20180146039232
O         5.10435175057147   -0.39099386851186   -0.33945275585869
H         3.10120549617258   -1.51118145932219    1.48402873935945
H         1.43952156480125   -1.72069590256599    0.92488567774627
H         1.71564552789538   -0.60290732651089    2.28865829774327
H         3.10261068196014    0.72904159785158    0.66022506515545
H        -0.59036838240816    2.13372582694496   -0.17285453782239
H         3.02932585886155    3.42266950630142   -1.10780763194786
H         4.02858047405517    2.63969317297656   -2.37237560786829
H         3.87754738570966    1.75074731306622   -0.87167222680533
H         1.94146601345393    3.79513253791135   -3.54949583719693
H         0.38171893321922    3.20439774372755   -2.96413061110445
H         2.31678181841354    1.98633471315247   -4.96080433277381
H         0.65954856437812    1.46181611036712   -4.81489375789674
H         1.43263736479995   -0.57105823003813   -5.12887088864169
H         2.24283091753051   -2.29736230077845   -2.27237428111146
H         1.03633565240869   -1.31399937308015   -1.31939132496022
H         6.00229027598764   -0.70401784657139   -0.56177170812078
