32
 energy: -49.286702440239 gnorm: 0.125199754043 xtb: 6.4.1 (79825abcba525fcdf90b791dcacef51065a7a4e7)
C         2.39646120467224   -1.03444129891292    1.26506656590764
C         2.44934349439221    0.01920988040656    0.15796473150562
O         1.13998484706107    0.57273066220260   -0.04095025432471
C         0.90551815636158    1.55502837879193   -0.94647048653220
N        -0.28525978069453    2.00090845002100   -1.14178682194980
C         1.95536574380155    2.00493988599619   -2.02504019723282
C         3.38202435921972    2.50005276187407   -1.65974797849325
C         1.40118731947940    3.04348634279822   -3.02968139154282
C         1.62183865728158    2.02911072745121   -4.16649852598672
N         1.94310339503958    1.02835064804892   -3.16079234917777
C         1.78863407205393   -0.36428499623601   -3.27568094386908
N         1.41206841244158   -0.92250505792187   -4.38289344868050
C         2.00467188156971   -1.25055527625161   -2.06357230795082
C         2.98899784197270   -0.74711783076607   -1.05984915683402
N         4.24427065983046   -1.08445820482061   -1.05559969490310
O         5.06224203938786   -0.67681098176258   -0.01057932190962
H         3.42847274370220   -1.39395740704583    1.34550608372964
H         1.57740019569569   -1.71228759745656    1.00824134293748
H         2.11985659337197   -0.61979320410700    2.24064164520188
H         3.04879928526900    0.88828978804377    0.45194212921316
H        -0.93587267027692    1.43502855787338   -0.57947249245161
H         3.21938450467254    3.52734473247291   -1.30856696100996
H         4.01214318919423    2.54662623987589   -2.55599572682151
H         3.93898142270607    1.89710434123819   -0.93759329160358
H         1.84424174526830    4.02826292771855   -3.19258744372667
H         0.37005434014410    3.39784621361584   -2.90127389626677
H         2.39993507066451    2.19497810535315   -4.92422931979872
H         0.68137957101498    1.76445183742363   -4.65095704038663
H         1.18458211180942   -0.23394110245733   -5.09650222363967
H         2.47361009794845   -2.16733682568952   -2.44832369672161
H         1.02885424703127   -1.36607652141552   -1.58219563468058
H         5.78790159235519   -1.33032357828625   -0.01712319210832
