32
 energy: -49.296742559827 gnorm: 0.135389797804 xtb: 6.4.1 (79825abcba525fcdf90b791dcacef51065a7a4e7)
C         2.28582635752148   -0.84427276266043    1.37851150079050
C         2.55425824664582    0.14901805167209    0.24715413191470
O         1.28451372240654    0.76573934511367   -0.01318444917477
C         0.95263950274097    1.65899396954676   -0.97848543959508
N        -0.19608385672326    2.23808310228511   -0.97832097349884
C         1.88390594002958    2.10382866758379   -2.16287468286189
C         3.37304119228304    2.39379851260816   -1.82772742808569
C         1.15714925038503    2.94555340459554   -3.23912771011907
C         1.43216911131595    1.87432918694343   -4.31003426669043
N         1.84056276794059    1.02538631591160   -3.20157258342786
C         1.89075634180773   -0.37887827444840   -3.24646981775952
N         1.86458195439518   -1.08735862412944   -4.33122848079185
C         1.94544076485138   -1.15620720280221   -1.94488461636583
C         2.96106718777993   -0.75682529142329   -0.92566723529061
N         4.17513870493165   -1.20896832843778   -1.03113503047792
O         5.07234362901908   -0.93213876854885   -0.00853553182040
H         3.13167803575123   -1.53292420549596    1.48369843844008
H         1.37765137821400   -1.44068349293043    1.25278091148932
H         2.16709525803783   -0.21693137302637    2.26875618566227
H         3.36585905686596    0.83956752157962    0.50311386874620
H        -0.80348911490688    1.99021747989527   -0.18501392572067
H         3.91775394816654    1.46454911699716   -1.61584964156427
H         3.32919097191707    2.90456132253700   -0.85835785305568
H         3.84085151998545    3.01456770017968   -2.59652810627791
H         1.59309348180070    3.91418704970385   -3.49274557065127
H         0.09932914568762    3.09319351016184   -2.98513232982773
H         2.28873941160962    2.07545343818531   -4.96801476133601
H         0.57666751587263    1.58275879614681   -4.92020751653087
H         1.89587731219604   -0.49657908326134   -5.15894096369347
H         2.01493580354569   -2.18108706167519   -2.33631379013449
H         0.95535852732458   -0.99515111428085   -1.50774983408568
H         5.88954896412731   -1.41944360031676   -0.22856453838872
