32
 energy: -49.290339621450 gnorm: 0.127745976558 xtb: 6.4.1 (79825abcba525fcdf90b791dcacef51065a7a4e7)
C         2.26695630201763   -0.89807735696477    1.46655322355167
C         2.42236680350257   -0.01590425807935    0.22708963212607
O         1.19173449429935    0.71234455353563    0.10230876211351
C         0.87974546806466    1.45942717023596   -0.98598380846301
N        -0.29323008463311    1.97911482830814   -1.08065523460730
C         1.96660374917848    1.86877946039586   -2.04385086008882
C         3.29045353178868    2.45728763358845   -1.48259347336536
C         1.47961075706482    2.92883259626230   -3.06076853908078
C         1.71082062447153    1.91793223928852   -4.19858248249141
N         2.14570239360299    0.94447184208090   -3.20892122561683
C         1.80357202122806   -0.41647226607115   -3.29419819963286
N         1.50910033981393   -1.04293085014674   -4.38971951069667
C         1.84771801852264   -1.23894631180360   -2.02025068263817
C         2.86997310523021   -0.71995209731788   -1.06346096901599
N         4.13283716636552   -0.87898559315427   -1.32691710061296
O         5.07266794131567   -0.38502989873931   -0.43246369287012
H         2.79887946267010   -1.82757411069676    1.23446768500775
H         1.23875165128248   -1.16957919318909    1.72224381171525
H         2.80658658721640   -0.42810110420263    2.29607800497158
H         3.16232542301706    0.75223684635728    0.47906248816799
H        -0.87117733609088    1.55332726364670   -0.34282292807949
H         3.15288027604061    3.33559676948239   -0.83857850851367
H         3.99202248204636    2.75166440852606   -2.27229099431773
H         3.90980946931596    1.74389700553128   -0.93238678829247
H         2.11062814517918    3.79560275902448   -3.26848726654136
H         0.41482591804953    3.18032122061973   -2.96976665498683
H         2.62420925874773    2.06066512109057   -4.79225790730526
H         0.87799878930540    1.48777745497351   -4.75588162322766
H         1.38934040403861   -0.42737480035042   -5.19087875097635
H         2.02056656757222   -2.30644701453753   -2.21771133876801
H         0.83719011100329   -1.23916834140024   -1.60058175146303
H         5.90472005052079   -0.82124680827142   -0.69912343532956
