32
 energy: -49.287456799799 gnorm: 0.130099809922 xtb: 6.4.1 (79825abcba525fcdf90b791dcacef51065a7a4e7)
C         1.93760971501028   -1.13027483399186    1.28308713387975
C         2.41189780679113    0.01865180295942    0.39220543814845
O         1.29687848130251    0.89233879598771    0.16031015924634
C         1.07148572678457    1.76179485639172   -0.85610244153502
N        -0.10580777270202    2.27590559062360   -0.92377645925781
C         1.95083990593039    2.01128745421601   -2.13375756379134
C         3.42175350808767    2.26385485141394   -1.70183988801143
C         1.31392260291704    2.88358126034002   -3.24210599877157
C         1.51501303604317    1.77339441475621   -4.28950559148225
N         1.93428434195390    0.93591009065938   -3.17639810624999
C         1.85146721572833   -0.46699143160569   -3.21516488936560
N         1.78556120496653   -1.11523648525797   -4.33532810065718
C         1.86621833846563   -1.12396244502225   -1.84785870573611
C         2.91515193611796   -0.62906988547684   -0.90731275310201
N         4.15882920704585   -0.84729569824588   -1.21581035289835
O         5.24952626495753   -0.54106479372657   -0.41336186817338
H         2.87326046230223   -1.60861673188172    1.59375877959592
H         1.40666275606535   -1.92713719943513    0.75450277058108
H         1.24525521846357   -0.77237243326527    2.05298388671307
H         3.25679032176975    0.59044179235073    0.79255863409581
H        -0.62403515378846    2.07649804160625   -0.05694798690874
H         3.82825300269712    1.52320724004784   -1.00090629900645
H         3.48217718839712    3.20961077031266   -1.15013926090090
H         4.00913226304680    2.27813705595908   -2.62381471955549
H         1.80414324613891    3.81830970353471   -3.52243970671300
H         0.30262788214590    3.11369241580254   -2.88206923149974
H         2.31006270329606    2.06510668455409   -4.98943555391855
H         0.69076538578379    1.32428985457467   -4.84459889887065
H         1.63443497008804   -0.47323538060308   -5.10999142555121
H         2.02743104175751   -2.19450047091943   -2.03860432301372
H         0.84902558924701   -0.95308921776014   -1.48260540568184
H         6.01867625752943   -0.64976953509883   -1.00521902194195
