32
 energy: -49.287683045797 gnorm: 0.116405906945 xtb: 6.4.1 (79825abcba525fcdf90b791dcacef51065a7a4e7)
C         2.06256363300257   -1.03233252651030    1.31983674990027
C         2.36261339881823    0.00878701373488    0.24062775448997
O         1.16827158461598    0.75796678350464   -0.02890849983840
C         1.08317652399697    1.83138305247379   -0.85376404371636
N         0.19915189640134    2.73645160755694   -0.62082420052374
C         1.90076901517400    1.97036158696023   -2.18798308060714
C         3.36968523118868    2.43227949952085   -1.98098796262981
C         1.12610287475337    2.84811202136984   -3.20013077250128
C         1.36310504536238    1.71837847868339   -4.21872303525691
N         1.71132838683770    0.82016398323708   -3.12871022973187
C         2.05141145105080   -0.53179806588920   -3.31046921585141
N         2.01351114114912   -1.18846600342658   -4.42701820886366
C         2.10821828907557   -1.36931814585107   -2.04686809025780
C         2.92726354251983   -0.81133489657216   -0.92989602122815
N         4.19340863697281   -1.09489833839350   -1.00732224973359
O         5.00398223679313   -0.48057724736814   -0.06238782923408
H         2.86993853276349   -1.72223917160734    1.58991961233848
H         1.23770048623781   -1.60580390782424    0.88737044896677
H         1.59532412368918   -0.56062364230649    2.19125390534821
H         3.01890770024265    0.78468515694400    0.65090778363390
H        -0.36425560225828    2.69035181229015    0.23950212298704
H         3.55247905079689    2.88531475350960   -0.99790399034676
H         3.59346361245988    3.23724510529832   -2.69122205800593
H         3.95931671005147    1.53683092694121   -2.19490838427694
H         1.52561379679698    3.82311776730368   -3.48714183599793
H         0.08505080387835    2.95531766421277   -2.86844994997817
H         2.14649096073899    1.93187047107208   -4.95887818824354
H         0.40506618654890    1.47245506050067   -4.67795161913695
H         1.85786283795045   -0.65758107851407   -5.28085813488361
H         2.59681033550776   -2.33576253372894   -2.23578115820553
H         1.10583789419423   -1.41782178329138   -1.61078362125011
H         5.92024576577913   -0.49114120627335   -0.40010497629915
