32
 energy: -49.291614273786 gnorm: 0.120363767761 xtb: 6.4.1 (79825abcba525fcdf90b791dcacef51065a7a4e7)
C         1.93088372821993   -0.97751766545358    1.39552157533534
C         2.44635830735514    0.03450017464734    0.37143287948063
O         1.31112497654385    0.86663669251504    0.09006732588366
C         1.01579937840924    1.69450185696411   -0.94302142439223
N        -0.19515184478916    2.12867301225643   -0.94448611471860
C         1.90550167662536    2.09997209325659   -2.17262975334706
C         3.36611280579337    2.39640376294711   -1.73368398946562
C         1.26083516998772    2.98389965698832   -3.26719520896943
C         1.56302787913342    1.86900287421619   -4.28488024378335
N         1.93743900228639    0.99523140887735   -3.18373701096355
C         1.98988678124054   -0.40674722040406   -3.27428725994988
N         1.91024008278855   -1.15729237482408   -4.32769564715549
C         1.94975978526863   -1.11148621508354   -1.93149633717697
C         2.93153973477972   -0.71847517627356   -0.87723950487757
N         4.15737812050125   -1.08896200214700   -1.09991907771928
O         5.22189766451609   -0.76063046560430   -0.27147622817679
H         2.72749782428089   -1.70132894127759    1.60112648990463
H         1.07292419966994   -1.47713956067111    0.93663254393964
H         1.66285095948954   -0.53805822037365    2.36259123069273
H         3.24412117987080    0.67592567408752    0.76286302196584
H        -0.83122194565456    1.75383905660963   -0.22710970194658
H         3.81917129753731    3.06383762338527   -2.47825008336866
H         3.90128014158224    1.44626499514011   -1.84905775964122
H         3.30668614779611    2.96681905298975   -0.80290461533352
H         1.65514878834524    3.98853386921586   -3.43407060105577
H         0.22220180307992    3.19787875814364   -2.98303275482688
H         2.39408784031891    2.15745157805391   -4.94308891652407
H         0.75428723371516    1.52162460530757   -4.92867724314754
H         1.80619314760110   -0.68469317024821   -5.22264371378612
H         2.01828075388996   -2.20043092118464   -2.06539698983838
H         0.96023871256735   -0.87725839625374   -1.52742443819836
H         6.01142865805314   -1.09703000848500   -0.73750142095245
