32
 energy: -49.287072622321 gnorm: 0.116432323196 xtb: 6.4.1 (79825abcba525fcdf90b791dcacef51065a7a4e7)
C         0.80566750530147   -0.87088984077550    0.31514440842233
C         1.88588030552124    0.19510786275647    0.12688658218138
O         1.33650210901406    1.13991925466643   -0.80364419838695
C         2.14187541902106    2.07966566713994   -1.35871254948098
N         3.05121948205552    2.76762996839875   -0.76313878293842
C         2.04060051548055    2.01273671801885   -2.92497463297674
C         3.18760155055070    2.79454624912858   -3.62289475068792
C         0.62415889750151    2.28325591049401   -3.48667644394694
C         0.40850527787711    0.76398430170999   -3.61039143054077
N         1.84208837550575    0.61156333369842   -3.41601023248609
C         2.31097619512886   -0.61795690447820   -2.92111791448903
N         1.88532533505807   -1.72612797715889   -3.44083811225125
C         3.38600347449368   -0.71651367205237   -1.85530481330060
C         3.20326744383513   -0.38542079993876   -0.41073151161964
N         4.01757551005055   -0.80306541559137    0.51230790424714
O         3.75301275878838   -0.47270275450170    1.83449853842990
H        -0.19005104485638   -0.44681513786105    0.48682834875425
H         1.06913692136216   -1.56867928359844    1.11512534088630
H         0.74055977980700   -1.40584988793026   -0.63867350996445
H         2.17556213018716    0.69381008551677    1.05879342809412
H         2.95801883757604    2.79472498859465    0.26169978387877
H         4.14816003487191    2.71390848427935   -3.09760095653040
H         2.86251344968349    3.84147150890449   -3.59561666753974
H         3.25864829731739    2.55111569566268   -4.68635575042257
H         0.58282686128119    2.79855745206489   -4.44864137086973
H         0.04275121123336    2.92985476714114   -2.81647524109861
H         0.02591147347921    0.34210699260222   -4.54993573109153
H        -0.18958367908677    0.26439562231268   -2.84756220546209
H         1.38994726373551   -1.54053884873076   -4.30989798569478
H         4.22123475324566   -0.10864049687627   -2.23120903807897
H         3.71119704135424   -1.76038012789729   -1.89867157551787
H         4.33157969200009   -1.07325192648790    2.34273501693081
