32
 energy: -49.292796364562 gnorm: 0.110825695321 xtb: 6.4.1 (79825abcba525fcdf90b791dcacef51065a7a4e7)
C         1.92687269832319   -1.02012691552308    1.39016364613528
C         2.24653792255892   -0.09299673903440    0.21675170361542
O         1.10112655891275    0.74392471431781   -0.00226375731268
C         0.97481296684469    1.76340672685330   -0.88801294557899
N         0.01720444902559    2.60063242873732   -0.69579264077050
C         1.96940298638338    1.89872917128145   -2.09647951936205
C         3.37171643465482    2.45189117382619   -1.72036946814023
C         1.42216019220181    2.88482345979031   -3.15626241188992
C         1.77910659711168    1.79313088384509   -4.18134518287265
N         1.96117387656817    0.80971728794742   -3.12497124549156
C         1.90929644219725   -0.58926566353760   -3.25400468292046
N         1.88582815352757   -1.17489842203901   -4.40977904609886
C         1.90774381246607   -1.43898123122681   -1.99728842775804
C         2.83307273770470   -0.86576402022636   -0.97503824170356
N         4.10816003534081   -0.95392530928145   -1.21148360424396
O         4.96069792994292   -0.22181228720638   -0.39630835908099
H         2.71851471519395   -1.77748988477670    1.41194466232777
H         0.93887859570999   -1.48618674332324    1.33583481870028
H         2.09952695280490   -0.47695331420916    2.32576122854911
H         2.99866614818294    0.64490236829507    0.51821129430739
H        -0.53024741662452    2.32057165781854    0.12978413138597
H         3.78150770927256    2.97269496254449   -2.59555124930651
H         4.08727817787430    1.62460283229495   -1.64262470242251
H         3.24336203530614    3.15006823788829   -0.88890731919377
H         1.92267330802308    3.85328441370087   -3.22099675129235
H         0.33849398883668    3.03246079196532   -3.06052627753827
H         2.66945696195597    1.99668118569509   -4.79203780326639
H         0.93803625069253    1.53183745607580   -4.82441134761607
H         1.98034663549120   -0.63412367819075   -5.26636339545730
H         2.18212126758444   -2.44499701839050   -2.34524580405904
H         0.87494469235312   -1.45601342077786   -1.63628343715889
H         5.85445125502187   -0.49319090669947   -0.68137319737349
