32
 energy: -49.288718361722 gnorm: 0.115094692870 xtb: 6.4.1 (79825abcba525fcdf90b791dcacef51065a7a4e7)
C         1.88271865359076   -1.14192189306793    1.05638000256247
C         2.42235477443394   -0.03477961005807    0.14991399729696
O         1.23914264772972    0.71931731846611   -0.15293803737050
C         1.02401788022615    1.72803710913157   -1.03387846719885
N        -0.13004190718835    2.29597939404986   -1.05617573900104
C         2.08793339903132    2.01253605432633   -2.15417176784932
C         3.52030742185706    2.35970258574145   -1.66253162741838
C         1.59813742708052    2.96872607152384   -3.26808242514116
C         1.32045264149817    1.74111662961114   -4.15457231223045
N         1.87797130226480    0.88565007578763   -3.11846102032326
C         1.64642720484172   -0.50100381389280   -3.10994526590749
N         0.85630932238638   -1.04574194774123   -3.98075233665022
C         2.52052676409108   -1.33493801076976   -2.19241685451420
C         3.17615745361473   -0.64130719973191   -1.04401288394668
N         4.46437085425897   -0.80679671454543   -0.99257483180528
O         5.10450098491865   -0.31483957565156    0.13681996264732
H         2.60174117374398   -1.72573268633481    1.64199227152268
H         1.26482735474317   -1.92215289756763    0.60278806113477
H         1.26756760530751   -0.60491392586790    1.78672342828069
H         3.08867702581353    0.62203393651437    0.72059818895397
H        -0.72871912770680    1.88133438395521   -0.32859777745440
H         3.37827223607611    3.38616435988649   -1.30016322450426
H         4.14251402666525    2.58451087944138   -2.53705951627762
H         4.00514336965767    1.77976920652341   -0.87267927759492
H         2.38306743974478    3.67245310680469   -3.55316779540371
H         0.66990628925876    3.49028815655777   -3.00039870694026
H         1.78835445093162    1.56780043290826   -5.13341416260213
H         0.24888431595217    1.56993368031978   -4.26248615484963
H         0.27208531737946   -0.33391187037685   -4.41328912661527
H         3.25281093782548   -1.81718161502267   -2.85545989393431
H         1.87297136921031   -2.18250566553092   -1.94830665890053
H         6.05010048760726   -0.42073573930973   -0.08302294844874
