32
 energy: -49.293574248873 gnorm: 0.131859880874 xtb: 6.4.1 (79825abcba525fcdf90b791dcacef51065a7a4e7)
C         2.13787144746954   -0.90362186382373    1.44858957369600
C         2.39065003286867    0.10326716716692    0.32567849870262
O         1.11935525942303    0.67372170294632   -0.01894263813242
C         0.94223245756384    1.60366480527826   -0.99037646170024
N        -0.18704664861506    2.18660040677184   -1.18993697409634
C         1.96754465185947    1.98038936628003   -2.11941431762885
C         3.39896671024440    2.29396900275190   -1.60305330846399
C         1.39563899981318    2.98495667092288   -3.14837731896866
C         1.61828475348867    1.90715309892697   -4.22483745819672
N         1.98439067623659    0.94249714759945   -3.19937071833771
C         1.89753286036038   -0.46033944897575   -3.23098426719422
N         1.75637992565897   -1.18980559669981   -4.29272145960504
C         1.90681761638975   -1.24875012911522   -1.93496069290932
C         2.84105619752488   -0.65854419483566   -0.93063889449263
N         4.07869922295294   -0.95121541097413   -1.19917148500492
O         5.08394109094636   -0.46535215390478   -0.37409772837043
H         2.96375564503083   -1.62131204699896    1.50864168779168
H         1.22236852574857   -1.48233963249598    1.29615638135107
H         2.03091802604628   -0.39849306326349    2.41481716067279
H         3.08331017305464    0.91209423865937    0.58469691814857
H        -0.81226503180987    1.94923864371911   -0.40732854183749
H         4.15934693011595    2.32417513275090   -2.39426638185426
H         3.90528712811377    1.53855918792047   -0.99029356946534
H         3.47882330079099    3.20093329129852   -0.99783097602868
H         1.94470570782462    3.92742819544691   -3.20217053109079
H         0.32520459439597    3.11057293051055   -2.93936686231908
H         2.53062051298057    2.09141570636288   -4.80861201259944
H         0.77749584750217    1.61071456501306   -4.85285488032105
H         1.63594536204744   -0.57140099001213   -5.09158257637382
H         2.18980817598782   -2.24146258070284   -2.31293347640952
H         0.90436637072666   -1.37292123038535   -1.51429246757850
H         5.91478780105763   -0.79065026451147   -0.77105894434385
