32
 energy: -49.288999462462 gnorm: 0.115472107781 xtb: 6.4.1 (79825abcba525fcdf90b791dcacef51065a7a4e7)
C         2.05979493756264   -1.03442325679539    1.29358963368705
C         2.34743245931356    0.01671407469454    0.22073046993317
O         1.12948421825028    0.63750612775529   -0.21698154967102
C         0.96047191699318    1.79759526197683   -0.89924132275427
N        -0.14375840268025    2.45031511621129   -0.80155913506447
C         1.96818127436346    2.02079396886146   -2.08356272377328
C         3.47809503962123    2.33783899367256   -1.90033370580198
C         1.43133448941473    3.02780068492358   -3.12889971256768
C         1.24146320613429    1.83892281944836   -4.08833518284053
N         1.69234358996848    0.91671862309267   -3.05759613102512
C         1.83303614494859   -0.47376878759791   -3.21005785505121
N         1.75806101638528   -1.06478268750619   -4.36088893323326
C         2.12745587520732   -1.30976579805541   -1.97888738946865
C         3.02170970680252   -0.78191366473581   -0.90581272578885
N         4.29398538281018   -1.00893454393967   -1.04474637407571
O         5.24431610349388   -0.45080908070699   -0.20053757143802
H         2.98691566366862   -1.33930603751790    1.79185042197234
H         1.67204920015949   -1.89127247569913    0.73523634397398
H         1.26382422260450   -0.78969367708402    2.00543789159885
H         3.01346060750573    0.80531015150158    0.58895943910291
H        -0.76775544652168    2.05106042174409   -0.08675988474672
H         3.57090677356414    3.25886067614770   -1.31023738602752
H         3.95343666316309    2.30324793836317   -2.88792302447721
H         3.96069959386987    1.53497579807265   -1.33663262692168
H         2.26109118677006    3.66434787419109   -3.44343435246781
H         0.48656333131903    3.57216261298095   -3.00094589880060
H         1.86567134354322    1.80999094484584   -4.99201052450555
H         0.18278784722746    1.72002529334457   -4.32131058353913
H         1.51229832328297   -0.44373812181137   -5.12836021386811
H         2.53419606753599   -2.29138895349422   -2.26067362266009
H         1.12581669729270   -1.55071833181546   -1.61017401293512
H         6.14478648042545   -0.72199035428619   -0.46381905265127
