32
 energy: -49.294508517445 gnorm: 0.117237170286 xtb: 6.4.1 (79825abcba525fcdf90b791dcacef51065a7a4e7)
C         2.18312809440585   -0.66738881433032    1.45782157964171
C         2.42368855545171    0.12257341023567    0.17067661230710
O         1.11710762485374    0.64583503237770   -0.11113192695485
C         0.91904442566919    1.56847644317049   -1.08547998903970
N        -0.25598240258149    2.05169206255433   -1.28728246006242
C         2.05583819420259    2.03916919130240   -2.06224058064985
C         3.42896935609077    2.53537954843495   -1.53100045060560
C         1.44787876353112    3.03852172051000   -3.07549092806150
C         1.54532306864862    1.90847636901454   -4.11640409228085
N         2.05665668218252    0.97928429199566   -3.12075520026452
C         1.85720498003580   -0.40571286552895   -3.25675556262590
N         1.55916899048331   -1.08470129820841   -4.31952558912187
C         2.03273528095740   -1.31317487118131   -2.05381893801069
C         2.91596792336560   -0.77026606021501   -0.97912960806908
N         4.11902462694262   -1.23852128461351   -1.13051671225647
O         5.12194038913251   -0.77418531985441   -0.29035416577567
H         3.08015067853691   -1.10203133079591    1.91302101749259
H         1.57842777915175   -1.55029885387925    1.23176157477716
H         1.58830908683302   -0.06208032260686    2.15062881733053
H         3.12490843324541    0.92190889671073    0.43605050409375
H        -0.95213831359634    1.61327090481047   -0.66851883328686
H         4.00333698906546    2.82147273971588   -2.42170867073190
H         4.07331729855300    1.78724044865742   -1.05394440922105
H         3.24377804509322    3.33570592931108   -0.80958709339685
H         2.12648104600938    3.88723550484672   -3.18413895362734
H         0.41792052455618    3.28304114909363   -2.78447390507180
H         2.22903835063621    2.04819346809649   -4.96499970890880
H         0.54017334784741    1.62131780086073   -4.42692248693321
H         1.22844402629561   -0.42759778288483   -5.02233693831382
H         2.46351778734532   -2.27599075350183   -2.36339460882110
H         1.03816435051852   -1.48620731410451   -1.63170857534611
H         5.92495978993258   -1.26314674327370   -0.55451300301448
