32
 energy: -49.294120758974 gnorm: 0.114149552368 xtb: 6.4.1 (79825abcba525fcdf90b791dcacef51065a7a4e7)
C         2.23316907214611   -0.97936548040351    1.35670188163246
C         2.38990626280601    0.02726910560447    0.21618793484289
O         1.10819883589467    0.64858832104084    0.03853380436909
C         1.00222502467828    1.57616925412876   -0.94544458964819
N        -0.09892108634596    2.23810911759282   -1.01042505754539
C         2.02352235808493    1.88121210838225   -2.09948685056574
C         3.49836849607128    2.17684482349407   -1.71043655134693
C         1.39098422311021    2.91732509796603   -3.05936277230217
C         1.36555725964774    1.89393123900289   -4.20915257082437
N         2.01962005133266    0.97402618788658   -3.29146349584082
C         1.81392092068353   -0.41477502444004   -3.36503831371696
N         1.39145413003301   -1.07644227719327   -4.39608104476393
C         2.05798816919496   -1.19126038355735   -2.08486006833832
C         2.97137003835854   -0.64467245640288   -1.03758637592071
N         4.24950460781641   -0.86729219420344   -1.11720354971521
O         5.02150881076024   -0.38333927307859   -0.06976854238589
H         3.23868894029252   -1.26992813079878    1.68116035617288
H         1.65870169353725   -1.88374753111120    1.13675628470512
H         1.83014219989293   -0.40431875591552    2.19758266607155
H         3.02698437388149    0.79414436885792    0.67127434754900
H        -0.65096710926933    2.03163442568882   -0.16642980906775
H         3.64987504248467    3.18682569108970   -1.30782876791226
H         4.09444912738014    2.19911075535946   -2.63058380366391
H         3.94726080911808    1.50406528947111   -0.97482880943788
H         2.04983689018380    3.76976562899405   -3.23790923291460
H         0.35747431159966    3.10940565694981   -2.74272898899096
H         1.97459662113587    2.04087079471722   -5.11169442296178
H         0.34437527147976    1.67896187916550   -4.52566985442040
H         1.15787480150358   -0.47714892759726   -5.18436779271534
H         2.39938059832525   -2.19799868073728   -2.36477842362136
H         1.02957217517643   -1.35521417008977   -1.74904998334929
H         5.93645453366464   -0.66962714776863   -0.25582471499279
