32
 energy: -49.285107610907 gnorm: 0.125746934478 xtb: 6.4.1 (79825abcba525fcdf90b791dcacef51065a7a4e7)
C         1.83764670716598   -1.04706450134244    1.18464611350677
C         2.45824489620970   -0.03098770838832    0.22490780943093
O         1.25714910764018    0.62474341190559   -0.20840276670474
C         1.03811886389026    1.57584105871317   -1.15036312012462
N        -0.05156952343423    2.25902300966026   -1.17777157891513
C         2.08762979440621    1.96260540892771   -2.25347375816707
C         3.49235919452758    2.24096779883966   -1.65082986388691
C         1.47378541634663    3.05431889429864   -3.16251343537872
C         1.19039162106549    1.89189581813635   -4.13125419085572
N         2.02255370235245    0.97015733693092   -3.37357277030294
C         1.69805297281483   -0.38012196030341   -3.15462231634841
N         0.91805994095615   -1.15946745694301   -3.83547643658790
C         2.49317374393787   -1.20396561472538   -2.15942421620866
C         3.20363105203412   -0.61815015781368   -0.98389130437589
N         4.48511047582710   -0.82306543653657   -1.05701185844968
O         5.13042255150326   -0.39491773593455    0.09519597175760
H         2.57228127497864   -1.71010176751621    1.65524550454099
H         1.14226492438663   -1.76651863659052    0.74291582740138
H         1.37546502675204   -0.50074395359645    2.01417117982896
H         3.07215109042512    0.68382734588162    0.78457595299342
H        -0.71409547789369    1.91281264339510   -0.47001997897336
H         3.39532737270859    3.30269154729316   -1.38922685624588
H         4.31780885790683    2.23910420328226   -2.37270812854750
H         3.78868199812868    1.78715084109618   -0.70135720951826
H         2.20583979009293    3.74693903509586   -3.58322029874180
H         0.59075999767885    3.52527643568662   -2.71111590613990
H         1.51253449869073    2.06504902932712   -5.16727731122684
H         0.18552610132765    1.47553249804711   -4.20932178463493
H         0.50041017339553   -0.67745070823021   -4.62815313443911
H         3.21427120104283   -1.75209579702495   -2.78231813719616
H         1.77034270479667   -1.97815371613742   -1.88476665441757
H         6.06161420016750   -0.68718254203022    0.06103871830603
