32
 energy: -49.283490984023 gnorm: 0.112815057738 xtb: 6.4.1 (79825abcba525fcdf90b791dcacef51065a7a4e7)
C         1.94554376336274   -0.43127973924273    1.59039911145721
C         2.44938202973621    0.33754203927526    0.36822405748666
O         1.41312337241622    1.22449951475353   -0.07881832196832
C         0.95860485138495    1.68950267158823   -1.26921123026071
N        -0.26061079450438    2.07781616122253   -1.40200964744905
C         2.04499547561550    1.89235618892786   -2.38568728988432
C         3.46232564721873    2.34147693505686   -1.93469315535002
C         1.45059381257590    2.74047419847377   -3.53563463217122
C         1.55814348970734    1.48304614058990   -4.41728413642898
N         2.09675950553483    0.71252243849127   -3.30716580930510
C         1.88691661066410   -0.66216965432821   -3.10057004367621
N         1.57334196443992   -1.53385743436788   -4.00675005964375
C         1.92642609064005   -1.20195328845761   -1.68338010517628
C         2.92489039964375   -0.61122193430479   -0.74321389600741
N         4.15602598355377   -1.00308269859018   -0.88561032686831
O         5.02702573995682   -0.44038329929622    0.03745512484319
H         0.89255689908693   -0.19846099015490    1.78478082570699
H         2.36835485507500   -0.12472267149433    2.55141382087360
H         2.14918079580807   -1.49148141467376    1.40413518080380
H         3.41088480097489    0.79775094206183    0.62276288148994
H        -0.92646307217647    2.00446904250817   -0.62036041609974
H         4.26762883084864    1.78300170433731   -2.42936558636720
H         3.72638479438888    2.30892149903903   -0.87088313697710
H         3.52931814751386    3.41357300443688   -2.13810749611055
H         2.12397890445444    3.54324017661657   -3.84343299756257
H         0.41827302663563    3.05809239621784   -3.33884260880179
H         2.34112912447551    1.58373895979694   -5.18141529556700
H         0.59703499119269    1.23991378152511   -4.87155803923480
H         1.36688210679911   -1.11443154994485   -4.91038941032712
H         2.13099138140599   -2.27771305166311   -1.77991536591503
H         0.94130108100501   -1.06620396458529   -1.22688305900946
H         5.86997366514664   -0.93025417546056    0.09374581634986
