32
 energy: -49.291809235183 gnorm: 0.113942489827 xtb: 6.4.1 (79825abcba525fcdf90b791dcacef51065a7a4e7)
C         2.23882264284860   -1.10189725768585    1.30193327558337
C         2.44099793073498    0.00212285218292    0.26322419318985
O         1.26631910307683    0.81496159642360    0.12252840634301
C         0.97221775233198    1.70457121332570   -0.85826180251835
N        -0.19771207692361    2.23508200600845   -0.92705199578559
C         1.90266511045889    2.03736919287973   -2.07950140014595
C         3.25423256013432    2.59740261204787   -1.55647368451770
C         1.29695296370307    2.91284747473185   -3.20273199100951
C         1.68775847476112    1.80030900712946   -4.19244271279285
N         2.04361093183149    0.93217056806994   -3.08074069289348
C         1.86375120251411   -0.45446733093588   -3.22695980072910
N         1.68631763410400   -1.04975678327993   -4.36427183978875
C         1.87346907110108   -1.33237606109242   -1.98981124834274
C         2.84326907051837   -0.75840400214440   -1.01009135084259
N         4.08244965946052   -1.00244024864394   -1.31734405477580
O         5.03085468875340   -0.60369120264934   -0.38522382670424
H         3.18922173637021   -1.13709434511831    1.84624283045193
H         2.05470822701219   -2.10046880963548    0.89542070577268
H         1.42066808887703   -0.87439333338952    1.99407125113974
H         3.33352934538324    0.54163054813125    0.59995696173285
H        -0.81566879841588    2.09489795244872   -0.11576135422046
H         3.11953211533855    3.62619683860615   -1.19793937472574
H         3.98705769676958    2.66972862898368   -2.36900991528905
H         3.73651799983565    1.93025560335338   -0.83704961453080
H         1.88050859816403    3.83044148510958   -3.30325356166112
H         0.26054593407521    3.27287709074585   -3.16356867476950
H         2.51609438265220    2.07868554478956   -4.85837672074946
H         0.79908792668879    1.47903304949154   -4.73673499879647
H         1.81403909865835   -0.47198508873084   -5.19190395453791
H         2.27149458308767   -2.30080360287323   -2.32469762220038
H         0.84323623757985   -1.53902992395352   -1.68451925100067
H         5.89829497446125   -0.78513897466945   -0.79550102539519
