32
 energy: -49.285999807525 gnorm: 0.124088804221 xtb: 6.4.1 (79825abcba525fcdf90b791dcacef51065a7a4e7)
C         2.20745034160462   -1.02038333925392    1.36857469644435
C         2.43223483431371   -0.03756382519757    0.21870968473394
O         1.21417348030764    0.67796257001645   -0.03569356425499
C         1.06233727199375    1.69411340315683   -0.92126320955701
N        -0.07152315562417    2.29957846824767   -0.97305324092833
C         2.02100627025574    1.90086720818462   -2.14850385516928
C         3.51681604968718    2.21718331028500   -1.87204911351599
C         1.41947856403854    3.04314009028482   -3.00195186459686
C         1.26426792559693    1.98320385387569   -4.10759327793971
N         1.71683982492077    0.91285968499757   -3.23253973034844
C         1.71225914231742   -0.49163010070862   -3.29484269940094
N         1.62500593592912   -1.12432421165517   -4.42241350048504
C         2.05943381657701   -1.29283372843662   -2.05431975338052
C         2.99244860885408   -0.74540320913734   -1.02494604297132
N         4.27788693840006   -0.91259546452220   -1.12097461169477
O         4.92358562306436   -0.35421969937330   -0.02616378970429
H         3.16234637631055   -1.21019589825237    1.87148116661496
H         1.76402845799400   -1.95674388012255    1.01800130388555
H         1.50545768769976   -0.54565632677112    2.06285883690371
H         3.16380164021635    0.67936794182683    0.60843868275157
H        -0.71623199039302    2.02163236628540   -0.22018467783665
H         3.61378559976279    3.16053247738841   -1.31905917052836
H         4.11936419192015    2.21728876824032   -2.78824482568591
H         3.91081901146423    1.45384977195988   -1.19578071244606
H         2.28426154024251    3.64235734826473   -3.29471392532623
H         0.45401944012692    3.50071145028177   -2.74934196609881
H         1.94040231659200    2.10019918739667   -4.96564709303372
H         0.28192376489232    1.78427094062148   -4.53728306975956
H         1.28492461018735   -0.56237550516886   -5.19937306478835
H         2.48921737122869   -2.23974196964188   -2.41079691041831
H         1.09528084193885   -1.63704889192789   -1.66803789228538
H         5.88418198682574   -0.28443697157732   -0.18768257969405
