32
 energy: -49.291731691520 gnorm: 0.122286043053 xtb: 6.4.1 (79825abcba525fcdf90b791dcacef51065a7a4e7)
C         2.07281381537232   -0.94649693563631    1.33089550356632
C         2.30153325082328    0.07817825778395    0.21896925527963
O         1.02770826194533    0.59719981799958   -0.19134650601253
C         0.99759521135057    1.71198396607077   -0.96348629453414
N        -0.12905453118036    2.31665281749952   -1.10471502923336
C         2.06201354482522    1.95133131387269   -2.09381342860701
C         3.55656691337952    2.15629396347527   -1.72201976236563
C         1.65269538519912    2.99229487315745   -3.16332262214081
C         1.14188023471276    1.81215394710218   -4.00968742617055
N         1.89195349719242    0.90634910592981   -3.15348395787112
C         1.81869225601854   -0.49652662790216   -3.20886145173801
N         1.57861845190946   -1.12047273674352   -4.31899058141315
C         2.15642328883253   -1.34598510615600   -1.99819521714444
C         2.96764519281760   -0.61320523777025   -0.98096382020411
N         4.24361188768453   -0.82799432020332   -1.10466136899446
O         5.07615308720257   -0.25628179693263   -0.15211690216344
H         3.06807279070411   -1.34286201789499    1.56138293720068
H         1.39915747233011   -1.74913497055638    1.01743888756027
H         1.49138523345299   -0.57823358148485    2.18325270230738
H         2.93154968592842    0.88912453895936    0.60174237570980
H        -0.73713735678639    2.04253557363740   -0.32061707191317
H         3.99210472956607    1.46549994747447   -0.98838562167752
H         3.62846130425801    3.19748299366761   -1.38551499002328
H         4.14904316548792    2.16197887973917   -2.64082058129922
H         2.54231186551941    3.40141656152628   -3.64687458144071
H         0.93999238323218    3.76700539813558   -2.85159732706810
H         1.34605324310967    1.88451345304287   -5.08680369386538
H         0.07926491342786    1.62301877571991   -3.85385339999552
H         1.35351733876969   -0.61248991445444   -5.17127618686321
H         2.73457299428823   -2.20439397543790   -2.36873835638173
H         1.25465791705006   -1.74342438862314   -1.52264296795610
H         5.95039360126053   -0.64156645602784   -0.35450904232916
