32
 energy: -49.290759663188 gnorm: 0.130463509802 xtb: 6.4.1 (79825abcba525fcdf90b791dcacef51065a7a4e7)
C         1.92537724518317   -1.08043413904962    1.22626757337126
C         2.30054770865396   -0.06504629159265    0.14604238529958
O         1.03881026391350    0.53334705526485   -0.18609691360193
C         1.07029263141230    1.66816364095359   -0.92842466088356
N         0.23635508342297    2.60321437098216   -0.63664068173493
C         2.01023810968616    1.92948328023756   -2.15973593575735
C         3.42041088081747    2.32547840836253   -1.64153657674106
C         1.29694190467995    2.89940233355935   -3.13208460327140
C         1.26845340870110    1.79180116710476   -4.20091862195597
N         2.01178956661964    0.94062056213219   -3.28488389976049
C         2.00726530351630   -0.46520618655869   -3.29605829309930
N         1.79251240435888   -1.11025195680398   -4.39929353780220
C         2.03354019097903   -1.25329470497840   -2.00007187283149
C         3.03765625386238   -0.74067236169309   -1.02090064662140
N         4.31813791126191   -0.91854755414865   -1.15600641199395
O         5.01255452657999   -0.35419148348201   -0.09458811104120
H         2.82989570369632   -1.54095728287527    1.63922635420733
H         1.36077879326613   -1.93867488940231    0.85083830533203
H         1.42313478487370   -0.60486982149267    2.07584451526664
H         2.92480380003361    0.66318778350205    0.67618321682233
H        -0.29219386617188    2.39835091308007    0.22265062940539
H         4.16713502218300    1.55455763056310   -1.87217226665216
H         3.32369937452865    2.70447821450906   -0.61709288088069
H         3.71565913524597    3.22145139816080   -2.19409086424575
H         1.90582801344524    3.77510845588692   -3.36664168037994
H         0.29848518668569    3.30087961267683   -2.91484097563382
H         1.79948584295378    1.89614550720582   -5.15706651025052
H         0.32033385205385    1.30326239279833   -4.42809002044900
H         1.72767250001612   -0.51953172869826   -5.22509812558102
H         2.24413426427588   -2.28489245627949   -2.31611190316372
H         1.00832779904103   -1.07614375122623   -1.66118278608265
H         5.93943808928258   -0.61518931779266   -0.25728511481325
