32
 energy: -49.281448032342 gnorm: 0.124218855171 xtb: 6.4.1 (79825abcba525fcdf90b791dcacef51065a7a4e7)
C         1.95888263222995   -0.99344282188447    1.29768758960542
C         2.33487356279502   -0.05647507244240    0.14904751067328
O         1.14064542231479    0.67131652657445   -0.17423407419025
C         1.07491549415466    1.65550914941893   -1.10530591044863
N        -0.08722801595364    2.20443511622187   -1.16019079963107
C         2.13710374077821    2.06891611282211   -2.18639968526857
C         3.54205458946120    2.51401627015065   -1.69453698214280
C         1.44613236351863    2.99891130342401   -3.21239378462002
C         1.11237518956180    1.77746740373786   -4.08799589246734
N         2.04596899030044    1.02902429297457   -3.26070378923962
C         1.87596763026399   -0.36612307772492   -3.29472635346286
N         1.21159973721829   -0.91723233042986   -4.26127937655471
C         2.35772426056871   -1.29839260998872   -2.19921793299534
C         3.05962785281155   -0.81783049234340   -0.97194521433923
N         4.32579939470620   -1.06323901383457   -0.81035727465737
O         5.10078031676504   -0.58922447292215    0.23942164391074
H         2.84538821558069   -1.24918116491794    1.88885246205459
H         1.47221526039678   -1.93678335938235    1.03394676750402
H         1.27354144170423   -0.54956969669529    2.02808062123856
H         3.07249468158874    0.58126429104526    0.64932084271609
H        -0.70162201464268    1.81248497064380   -0.43313530827761
H         3.98746314554230    1.78857311210507   -1.00139049505463
H         3.52470076123436    3.57544603532521   -1.41968328941784
H         4.22627692395724    2.55760550933533   -2.54612088417749
H         2.10489546095311    3.77998665406955   -3.59784548090605
H         0.58917620359488    3.57689100688267   -2.84244753543318
H         1.31404562545650    1.85771914983773   -5.16502452075849
H         0.08874295040307    1.41394552775231   -3.99188886082603
H         0.91394189767869   -0.22650989129606   -4.94641450279283
H         3.12305120302926   -1.88024832733815   -2.73226921935857
H         1.54212918706705   -2.00744202687868   -2.02792203073480
H         5.99247879920446   -0.97108686487542    0.12646922145828
