32
 energy: -49.282918338668 gnorm: 0.147526915873 xtb: 6.4.1 (79825abcba525fcdf90b791dcacef51065a7a4e7)
C         2.00492435483966   -1.14204537292370    1.23625651727221
C         2.41458991761066    0.03354347205783    0.34810292211121
O         1.25393599083353    0.85472272473933    0.15082248125179
C         1.01816058891621    1.58252526890087   -0.96925060076576
N        -0.19087809345933    1.94770308896902   -1.21375051079759
C         2.07854339749675    1.92704530612741   -2.07596065353618
C         3.41337360610470    2.49358080368277   -1.51811141100678
C         1.49094552569728    2.94461195329431   -3.08307695954765
C         1.31712259215395    1.87605105739443   -4.17759114454826
N         2.04457447085359    1.01166181519802   -3.26117329397378
C         1.97032272927896   -0.39178680247843   -3.22493994665883
N         1.81712427516407   -1.09702378204036   -4.30127721047834
C         1.83948946415973   -1.13096570632868   -1.90666383803095
C         2.87720881437127   -0.67662002242509   -0.93377351532592
N         4.10452736184990   -0.92157117055320   -1.28479281690408
O         5.15347286336305   -0.54416722144293   -0.45738686523111
H         2.92048319446957   -1.72063564714708    1.40285624585946
H         1.29489547540814   -1.82608863662197    0.76271714542488
H         1.67016408515048   -0.79066150111553    2.21842494782996
H         3.23880451411761    0.57857224744990    0.82211111042215
H        -0.89269382529989    1.65473391944958   -0.51996500741844
H         3.59203742698295    2.23914272802232   -0.46528231155784
H         3.65244678486772    3.56366016486004   -1.50220514633829
H         4.24979486921912    1.94236126279725   -1.95607470421155
H         2.16195298951585    3.77060056770122   -3.32825510765739
H         0.56139199073103    3.45286907810203   -2.79515414806803
H         1.86933912337188    2.00092774138746   -5.11916678539140
H         0.32311727624842    1.44681655588298   -4.30766362183217
H         1.84787113923060   -0.56045664824504   -5.16513956101792
H         1.77962149399150   -2.21105373680588   -2.10224183123335
H         0.93055414704041   -0.74544246587136   -1.43496780782418
H         5.95373951588114   -0.59302487931138   -1.01496155669951
