32
 energy: -49.290650708182 gnorm: 0.124607168408 xtb: 6.4.1 (79825abcba525fcdf90b791dcacef51065a7a4e7)
C         2.06609295941457   -1.10947059261389    1.39252313280486
C         2.41741958601561   -0.05145031696638    0.34571154363729
O         1.21511338292229    0.66975999369903    0.03799744021267
C         1.05836809299745    1.65338744966680   -0.88274044308548
N         0.00464336178991    2.38830958925117   -0.81593293508917
C         1.92307804498617    1.99094263512262   -2.15011809853273
C         3.38539692386175    2.46267790393704   -1.91985891116843
C         1.28296144594057    2.96480884182143   -3.16836744968799
C         1.42745557594786    1.86359144164967   -4.23440674867120
N         1.75659886526764    0.91647068202954   -3.18046005174588
C         1.86050195023619   -0.48188474079098   -3.28195116494399
N         1.64323757788750   -1.10469664787714   -4.39740281237052
C         2.06803213516180   -1.26360684996187   -1.99851965113868
C         2.95346315892769   -0.65160138760684   -0.96349876164003
N         4.22259277348963   -0.90021911546809   -1.09398128446315
O         5.11948001275404   -0.51260362071171   -0.10774169552294
H         2.67083920021877   -1.98746730163461    1.13919740202666
H         1.01761499836062   -1.42062801151978    1.37945573342887
H         2.35349298716063   -0.77391949842400    2.39501830743152
H         3.25026483534896    0.59794847147831    0.63849105792242
H        -0.74191204549808    2.04780109563114   -0.19430316203659
H         3.35748941910922    3.49376060625641   -1.54409535573964
H         3.97904648887441    2.56560587151122   -2.83608206990022
H         3.94701433095529    1.82934457675743   -1.22795563353375
H         1.90967846019499    3.82175791225151   -3.42426705094167
H         0.22211779396077    3.18406408831550   -2.98995078181584
H         2.31180690455186    2.01198658697278   -4.86923238027147
H         0.56268844282128    1.56958126944798   -4.83017809431751
H         1.47734625602602   -0.52811388966472   -5.21907197203010
H         2.52065594285896   -2.21785405482412   -2.30342791145686
H         1.13456991886889   -1.31670179300330   -1.43008501300658
H         5.93695457600124   -0.90269562580669   -0.47279907400716
