32
 energy: -49.286505585025 gnorm: 0.133106704446 xtb: 6.4.1 (79825abcba525fcdf90b791dcacef51065a7a4e7)
C         2.01406771028786   -1.21871710341595    1.29447372228750
C         2.28479546988212   -0.07321215526633    0.31816604094858
O         1.15551699189108    0.77277407978449    0.05470850106638
C         1.01547735911421    1.78395607869798   -0.83846011011402
N         0.20820972359133    2.74728609792983   -0.56419048250545
C         1.87187889254587    1.91557137142579   -2.14886720421522
C         3.30859192050229    2.38358401745412   -1.78727375675298
C         1.31617372660036    2.90193261586786   -3.20398788957537
C         1.30702248594825    1.76209082046017   -4.23872217307176
N         1.73180835602668    0.84777856339221   -3.19002453524476
C         1.97354264105261   -0.53501113244719   -3.26716975097176
N         2.03728464551250   -1.20544510986936   -4.37432199848473
C         1.96759668043516   -1.23767054117090   -1.92270364778050
C         2.93661463184731   -0.66555011328730   -0.94112866056935
N         4.18865551729541   -0.87407041545057   -1.22119888502249
O         5.20783899603626   -0.38300064511188   -0.41656447750619
H         2.91557300190740   -1.54699184319439    1.82390177392753
H         1.56505424770278   -2.09201768832199    0.81278011770738
H         1.25521318261046   -0.88869514085670    2.01239794989341
H         3.07452625621527    0.51949086537377    0.79366393949248
H        -0.38019951358098    2.61195990698015    0.26958165400709
H         3.11953007040115    3.35514888184473   -1.31248332135931
H         3.90286025462217    2.44014055127109   -2.70712448740745
H         3.73996727896496    1.64482756237023   -1.10653182958688
H         2.01158517571228    3.70336159235229   -3.46231915988686
H         0.33175160458354    3.31123705917344   -2.94192380225508
H         2.00556179095093    1.88408491876503   -5.07792551474695
H         0.36422601394518    1.41770301092060   -4.66503135870054
H         2.22489684683108   -0.58266962428727   -5.15666474813224
H         2.33009174862494   -2.20869983311003   -2.28893382020519
H         0.94604329206195   -1.28994145400964   -1.53413558140151
H         5.84316310342644   -0.90793080740005   -0.94050620001120
