32
 energy: -49.294808881145 gnorm: 0.110083007363 xtb: 6.4.1 (79825abcba525fcdf90b791dcacef51065a7a4e7)
C         2.19160435183799   -0.98719446316286    1.28234536857148
C         2.41651069500510    0.07947871127248    0.20983555484341
O         1.18937786071009    0.80390181339553    0.03741549813740
C         0.91484528257228    1.74425894600097   -0.90077992936743
N        -0.15434021538314    2.45212166213068   -0.79742448851000
C         1.89978458859389    1.94376875415915   -2.10825802506640
C         3.30250596590199    2.47684375776319   -1.70559962934738
C         1.32760211707669    2.88728834974559   -3.19332686990455
C         1.77078468189567    1.79532172961448   -4.18388036192981
N         2.06278102771981    0.84938398728366   -3.11799264409514
C         1.82211775891286   -0.52962070780393   -3.24807517037578
N         1.60133992214030   -1.24333519548600   -4.30694232631772
C         1.88132553183097   -1.30293831620382   -1.94430024710176
C         2.89255027801180   -0.69277439521437   -1.03055435148607
N         4.13815230502736   -0.97597593086242   -1.27096844696696
O         5.04908710654787   -0.55177670614526   -0.31306770588556
H         3.20900570778800   -1.27887656348128    1.56622245412088
H         1.53899315481268   -1.77121853662261    0.88775619671267
H         1.82335549796663   -0.53557006065112    2.21004040065964
H         3.24247755344222    0.71740883440368    0.54434079132929
H        -0.75991964836304    2.16214872146431   -0.01710158701645
H         3.92562473852744    1.62068638570590   -1.41607212551207
H         3.33156236112616    3.14373195957708   -0.83560266930133
H         3.66076328814874    3.05299824657423   -2.56289367009933
H         1.85006636331607    3.83800698016770   -3.31896814930513
H         0.24024141838798    3.03419827789028   -3.15646479313817
H         2.67995223016205    2.11208895317868   -4.71319584011087
H         1.01957607956014    1.53064281310940   -4.92875510527554
H         1.71321762855750   -0.79857684433922   -5.21511698333416
H         1.98153033250735   -2.36967976878188   -2.19015948423080
H         0.91717649246990   -1.24779218296971   -1.42984493792646
H         5.91697612132883   -0.96459135584155   -0.48643450264051
