32
 energy: -49.283497360982 gnorm: 0.127012409135 xtb: 6.4.1 (79825abcba525fcdf90b791dcacef51065a7a4e7)
C         1.96430960745438   -0.95359030419286    1.21663753030939
C         2.44095392872717    0.04752740463541    0.16343985605379
O         1.20333741484112    0.66235260835629   -0.22471967855925
C         1.02650291137283    1.70604454051421   -1.07282760522302
N        -0.10933446145817    2.30742107936795   -1.12876814697043
C         2.01941241480810    2.03117202226494   -2.24600101055420
C         3.49284601432234    2.22405370256985   -1.79243723797774
C         1.49032140584262    3.09253901009029   -3.24026417082102
C         1.20473535074641    1.91238340113887   -4.18666336982650
N         1.84797867937721    0.96759435330753   -3.28678096081245
C         1.85571665502779   -0.43709896755782   -3.22958831517297
N         1.22182660747962   -1.10117272262465   -4.14420316881921
C         2.40422384799976   -1.29949547351720   -2.10853220979502
C         3.14731402482819   -0.77932983053177   -0.92234011638935
N         4.41690867722183   -1.04177756736911   -0.82865432098002
O         5.02001947124864   -0.50551138265094    0.30094603596400
H         2.78597964616828   -1.44709050297031    1.74775527982818
H         1.27801688873403   -1.71598450947860    0.83709423464255
H         1.41568525391466   -0.42021439466957    2.00067282822289
H         3.18587894218748    0.63493281038853    0.71217608292417
H        -0.89419140394643    2.08489245955418   -0.50091849969140
H         3.95257329076765    3.12790145647074   -2.21293538579235
H         4.09803745722705    1.31821489801789   -1.91765000970853
H         3.58057672882234    2.45811756230113   -0.72811923718180
H         2.22035235530845    3.86092979519382   -3.50341992085633
H         0.57321727180973    3.57315504177388   -2.87526709052163
H         1.64325914801754    2.01954677481601   -5.18831942829934
H         0.14603626681770    1.84380417132985   -4.43897429811484
H         0.70087257290878   -0.50801858645270   -4.78598419578893
H         3.22278714451286   -1.84912525862972   -2.59462512692441
H         1.59783544473755   -2.01045710646448   -1.90466950127751
H         5.90970637340116   -0.90817586855455    0.30562051350266
