32
 energy: -49.285479715408 gnorm: 0.134513729234 xtb: 6.4.1 (79825abcba525fcdf90b791dcacef51065a7a4e7)
C         1.95519674013058   -0.93559191272800    1.25707111008634
C         2.40625643710902    0.10808726567893    0.23436355262668
O         1.16131947453513    0.79902534577930    0.05240469880558
C         1.01337920005701    1.62524299091516   -1.01311321120685
N        -0.08993536178996    2.26906184434807   -1.16511280582086
C         2.08933598332151    1.86250570373051   -2.13290621769004
C         3.52597408373504    2.21148273881770   -1.65518665170522
C         1.57930401356897    2.92029001207261   -3.14085272304898
C         1.42845025529009    1.77066573982679   -4.15357444082975
N         1.95928658955287    0.81403824143306   -3.19479745568120
C         1.74584912441829   -0.57513011678135   -3.22870811590923
N         1.27431354124635   -1.21194889327895   -4.25410896684640
C         2.10670444285220   -1.29118291580315   -1.94091678101964
C         3.02217839713933   -0.68560059018881   -0.92850159762278
N         4.29359262508832   -0.83178266423804   -1.15579676795298
O         5.09193101168736   -0.05512591697456   -0.32707417416835
H         2.75028624312040   -1.65079979971968    1.49598642059991
H         1.07891958683888   -1.54071257897953    1.00754543114874
H         1.74000902373169   -0.37783024487714    2.17510491172816
H         3.18577613717287    0.67768493107429    0.75299383887925
H        -0.78856930460230    2.03949180310923   -0.44474984233588
H         4.15898274190339    1.93363757334118   -2.50795316632977
H         3.91202595463951    1.72380367640260   -0.75207429096357
H         3.63875801270811    3.28201012507306   -1.46412051405229
H         2.21399161730985    3.78981691083139   -3.32446958729585
H         0.65200812013638    3.33977261285303   -2.72920808745727
H         2.01156727093007    1.95058518174553   -5.06719663444973
H         0.41458975070936    1.54412550917483   -4.48519783405945
H         1.25639582895655   -0.67299712590255   -5.11684749484988
H         2.44923736057428   -2.27124955679781   -2.30225549625742
H         1.11104628508637   -1.44118563460642   -1.51260294881099
H         5.82394451228843   -0.68553512407466   -0.18409239043770
