32
 energy: -49.289750831517 gnorm: 0.127595700378 xtb: 6.4.1 (79825abcba525fcdf90b791dcacef51065a7a4e7)
C         0.88522038282349   -0.52742524165565    0.58217817605967
C         2.05670331802341    0.41606918556680    0.30631985542308
O         1.48014823350139    1.27495041147777   -0.68880815444309
C         2.11795185058830    2.22483668685074   -1.41734980114859
N         3.03645311611181    3.02931821340935   -1.01228871369435
C         1.87849468180497    2.07379861839516   -2.96258788025229
C         2.75442474464839    2.92974775906750   -3.91863577942765
C         0.40898974417291    2.10698587242824   -3.44678849620959
C         0.74902911507968    0.78275634972639   -4.15445190500394
N         1.99204017724095    0.64897098713860   -3.41067662426568
C         2.43251417001120   -0.47234537301527   -2.68602050123981
N         1.97091823727753   -1.65675640595282   -2.93787476600369
C         3.60659160774152   -0.40957013092968   -1.72739850775957
C         3.15545742796446   -0.46737042165726   -0.30509611478283
N         3.83791959135635   -1.31574672365470    0.40485421664359
O         3.57988497684932   -1.57249401308392    1.74456313217153
H        -0.03377795937250    0.04264378343216    0.75890824284427
H         1.14566402189051   -1.18589599611104    1.41577346771507
H         0.77949691271419   -1.14753434971938   -0.31474831611509
H         2.36190732095158    0.95085552714046    1.21292004939939
H         3.26028257219894    3.01735647121060   -0.00756394008653
H         3.82667827884589    2.76655055899052   -3.74908445966407
H         2.52547821937724    4.00169970846014   -3.88730906644540
H         2.54703484446274    2.53505236683569   -4.91686438615420
H         0.13928839028694    3.03369974153584   -3.95775142680220
H        -0.18741305189410    1.89873422271602   -2.54888561390937
H         0.92053684134343    0.78556703997909   -5.23966118177852
H        -0.07417296315548    0.07461162751674   -4.05406734173212
H         1.09719061728590   -1.66091736871225   -3.45911420418864
H         4.19476676681790    0.51021457151800   -1.85573853152879
H         4.30167184633426   -1.24690984736276   -1.84147906986144
H         4.15504739930306   -2.34595790163268    1.90155078743504
