32
 energy: -49.296619375238 gnorm: 0.121263292478 xtb: 6.4.1 (79825abcba525fcdf90b791dcacef51065a7a4e7)
C         2.15188510047159   -0.95414271855531    1.37975875308993
C         2.40567017968535    0.04484926018243    0.25004198622464
O         1.15098782861491    0.71082378816382    0.04358952744036
C         0.89842698494148    1.66352912899823   -0.88829881531286
N        -0.06967113009203    2.48227259164966   -0.67068726093834
C         1.84320396092655    1.94516052888915   -2.11140681477576
C         3.27239556797298    2.41537761518347   -1.72380233690642
C         1.22435488769749    2.87872572076690   -3.17933858399926
C         1.68453281598599    1.88926630600551   -4.26525038756596
N         1.75870775943466    0.91067422866752   -3.19145696969180
C         1.92292713348836   -0.48189807048599   -3.29279098183853
N         1.97240614460938   -1.25218001097551   -4.33372730047171
C         1.92569150877546   -1.23085151685152   -1.97354278874060
C         2.91853158674749   -0.69705504656750   -0.99418741936821
N         4.15616025551872   -0.98471350241737   -1.26814786674294
O         5.18544150865994   -0.60595650705679   -0.41700495517930
H         2.99349777640954   -1.64506653705233    1.50256975795390
H         1.22581472651570   -1.51943352458656    1.24142690189857
H         2.04073717133277   -0.33312284028342    2.27539837907249
H         3.15108118010773    0.74708436131035    0.64029593267192
H        -0.56807450706650    2.35802590295922    0.22142899830748
H         3.12592525177399    3.22194686103880   -0.99366459426461
H         3.75602289872932    2.77752946240934   -2.63891408262481
H         3.83707789836557    1.59279668585289   -1.27686850403079
H         1.63005579057255    3.89196041031701   -3.21652426742496
H         0.13184873518466    2.92932945605065   -3.08360875606101
H         2.64264107290148    2.10004226341517   -4.75992607458832
H         1.00348539815424    1.59434452569233   -5.06425178400100
H         1.79768956726058   -0.71554078052527   -5.18024976026745
H         2.11349905326596   -2.28686710487209   -2.21434248563684
H         1.00732215302402   -1.31964260457398   -1.38532294676191
H         5.93249919849486   -0.99314441111263   -0.91267990784327
