32
 energy: -49.288906861254 gnorm: 0.123172183563 xtb: 6.4.1 (79825abcba525fcdf90b791dcacef51065a7a4e7)
C         2.33573947098108   -0.78096826391675    1.32724747499518
C         2.55615784146188    0.10388404595747    0.09960585429765
O         1.31919720438723    0.83001325144400    0.04449476943324
C         0.86508774412390    1.61175312159029   -0.96670139362813
N        -0.26186684747114    2.22906611240876   -0.90499556422249
C         1.81816480132730    2.05628113783872   -2.13372834125511
C         3.02383487064614    2.90552486690400   -1.64477561921202
C         1.10126876472112    2.84533480933837   -3.25553526142863
C         1.70638587936349    1.81139262073975   -4.22238319748714
N         2.27295523591572    1.03483461936451   -3.13053451007449
C         1.95081000599156   -0.33240833016696   -3.18852945058389
N         1.94343867280818   -0.97486905478406   -4.31392750300702
C         1.83510108935841   -1.24025907183019   -1.97866449928085
C         2.92083911958915   -0.88830001643122   -1.01580168719483
N         4.04458246390615   -1.53706064667667   -1.09220178948902
O         5.09680994000020   -1.12584780073424   -0.28532983508539
H         3.25422230463433   -1.36177469804425    1.46804283669225
H         1.43726722440615   -1.40213821539787    1.27075635484333
H         2.21098739652643   -0.18966215444874    2.24102200668502
H         3.44519852557310    0.73916266518907    0.18385293346228
H        -0.76836806408655    2.04529083959001   -0.02784235661682
H         3.57417664881765    2.28531482072525   -0.92535081365506
H         2.61309292447628    3.68355305194958   -0.99022076512757
H         3.69834386121451    3.25410818794295   -2.43140301237359
H         1.38573270734962    3.89865741997012   -3.30257008410202
H         0.00356372188616    2.82946645844518   -3.26483352331486
H         2.47810620112169    2.15769573223408   -4.92354215367922
H         1.05220106379956    1.29606236748699   -4.92643194421841
H         2.17815296788597   -0.43011861760716   -5.14052534025407
H         2.01796703928233   -2.27496070014549   -2.30173984180729
H         0.90202628595751   -1.17138097117308   -1.41128813694312
H         5.78762695029823   -1.80080447380438   -0.42992814259714
