32
 energy: -49.285449280900 gnorm: 0.124614243342 xtb: 6.4.1 (79825abcba525fcdf90b791dcacef51065a7a4e7)
C         2.39284319804935   -0.87636047403175    1.40447029213809
C         2.47932035977855    0.17294872817445    0.29536086479457
O         1.22314630822244    0.84763832799749    0.13045727072927
C         0.96207058205899    1.62779458825761   -0.94798883741306
N        -0.11371316977872    2.33259624936819   -0.97720439897963
C         1.92623189486494    1.89691640904328   -2.15872389297637
C         3.34981912006365    2.35547157957804   -1.73794299971347
C         1.25575325530218    2.89836689895928   -3.12957492442816
C         1.67933528693466    1.94375310162096   -4.26063145024830
N         1.83471995015393    0.89299253636039   -3.26668250195594
C         1.88205143875304   -0.51205298896264   -3.27673251121954
N         1.77589624483870   -1.14943389305035   -4.40003457606446
C         1.87616911979608   -1.26536253139359   -1.95997709535264
C         2.79831706371512   -0.68613366011203   -0.93824125948952
N         3.97855048469153   -1.19828469270906   -1.12338133320821
O         4.90739668470059   -0.66239165976556   -0.24168727044253
H         3.36663256322421   -1.37220656324222    1.32297737719170
H         1.56622528000014   -1.55335584570136    1.17064167645882
H         2.28232009411003   -0.40657230574256    2.38797098411787
H         3.31925777485421    0.79428382942535    0.62629540398359
H        -0.80121201024542    2.21462164063058   -0.22014302684067
H         4.00541255281835    1.54429158638708   -1.39546250697581
H         3.30354691908515    3.08057281403968   -0.91662336558102
H         3.71202154742294    2.89634427958938   -2.61630596613811
H         1.61251513136727    3.93017288644712   -3.15636862502951
H         0.16325921639588    2.79747802822227   -3.08991583000425
H         2.63006098426103    2.26693954629068   -4.70647126684021
H         1.05215920214771    1.74720528132025   -5.13081923380666
H         1.77088757307265   -0.47254264427269   -5.15957455208400
H         2.14663077335438   -2.31137961043730   -2.16276725880996
H         0.83948671071408   -1.36420777151794   -1.62410819691058
H         5.80970480599004   -0.98616399932265   -0.42800648505359
