32
 energy: -49.287297124799 gnorm: 0.127085304208 xtb: 6.4.1 (79825abcba525fcdf90b791dcacef51065a7a4e7)
C         0.99496740936860   -0.56862404533961    1.01035008798120
C         2.04708388938067    0.18343523262855    0.19419474605703
O         1.40579712194810    0.94546628435731   -0.83945531277340
C         2.00951342034872    2.01910030928128   -1.40751071819971
N         2.46776703722442    3.13084542013066   -0.95041550833835
C         1.99605426573977    1.96259798858279   -2.97739585038730
C         3.05412950897000    2.95669380547231   -3.53073146315581
C         0.57292099430778    2.19554177875136   -3.53902320781077
C         0.87675896082446    0.93654013186947   -4.37124640289578
N         2.05881932178388    0.59870706274830   -3.59357113560260
C         2.22370735465550   -0.56218465603242   -2.81791877701405
N         1.56760112409655   -1.67934429259988   -2.78946129133026
C         3.44080009879663   -0.54400335045058   -1.91254073671299
C         3.18400519776328   -0.62996097110485   -0.44404671982210
N         4.02265501811961   -1.31648747017810    0.27350067913928
O         3.85383542988488   -1.05223904798882    1.62590362816592
H         0.26542691485924    0.23294769002496    1.17166835159512
H         1.46349617098727   -0.96363273675559    1.91629967916534
H         0.50368138886620   -1.35192661947031    0.42275753725106
H         2.57399054995633    0.86855273906333    0.86802944995651
H         2.49273930800909    3.18331446393309    0.07736752840274
H         3.99172561349348    2.62472782362875   -3.06616633018294
H         2.90154909751026    4.00856273930702   -3.26097264037369
H         3.04578160262904    2.79741860393215   -4.61231229685657
H         0.30548482321598    3.05731378066095   -4.15420402676322
H        -0.14486551748673    1.99413342059626   -2.73310024090587
H         1.21742670701620    1.30314361590250   -5.34933093470437
H         0.12804659954606    0.16117849895647   -4.53693228518576
H         0.72786891784624   -1.74178311510290   -3.36047708068066
H         3.96741969890900    0.39949974607981   -2.11477522366787
H         4.05669399088116   -1.39147014762175   -2.22839426992218
H         4.12312027595946   -1.88614097406301    2.05694489358659
