32
 energy: -49.285279420581 gnorm: 0.119779907863 xtb: 6.4.1 (79825abcba525fcdf90b791dcacef51065a7a4e7)
C         1.00742497440297   -1.06020208851472    0.36872074027532
C         1.84144281246315    0.20654926123849    0.17274357590706
O         1.34521292499392    1.01674357261462   -0.90322739835558
C         2.04371854114500    2.05654336742239   -1.42357014688930
N         2.68104435469567    3.05480793573604   -0.92138172241380
C         2.10716487781398    1.98968917560725   -2.99182331758612
C         3.29612093027205    2.80908440660769   -3.56532564999174
C         0.73238820228176    2.37868438354703   -3.58652341139000
C         0.66750195176375    0.94744659832118   -4.14985836912956
N         1.94187690210863    0.60462524136798   -3.53779734840992
C         2.03912029852836   -0.49254095649662   -2.66414738668170
N         1.26962776293414   -1.53420045525422   -2.61769770244223
C         3.29300365815189   -0.53657533553406   -1.81139176296202
C         3.16356517968046   -0.39357166402898   -0.33064782774226
N         4.10828443491267   -0.90208657339395    0.40313995196128
O         4.00818417131567   -0.99924300886650    1.78439357117539
H         0.39712861842238   -1.08445193136975    1.27851217605315
H         1.72524291198960   -1.86237676120743    0.56249621011199
H         0.37502905640532   -1.33807008063528   -0.48160546857571
H         1.87739410001281    0.74573582849338    1.12618741568033
H         2.84589738779311    3.17831813014011    0.08722289547899
H         2.99647975104114    3.79352708003240   -3.94768202559263
H         3.71538930512525    2.22972847746920   -4.39661356142950
H         4.04624158011761    2.97047498792472   -2.78652692506116
H         0.88473949544602    3.20874687140979   -4.27963659165210
H        -0.08823953535029    2.61532584846136   -2.89669332228379
H         0.78069681588188    0.91430600143955   -5.24219101046175
H        -0.13657082665356    0.28395918436157   -3.82976605404309
H         0.41197003577832   -1.50545821503979   -3.16423674038637
H         3.98159569660767    0.23740527875299   -2.17911459545919
H         3.79253322545624   -1.49859623027327   -1.96063890526848
H         4.67126896885444   -1.67141354245840    2.03381018072016
