32
 energy: -49.292013972979 gnorm: 0.117730018807 xtb: 6.4.1 (79825abcba525fcdf90b791dcacef51065a7a4e7)
C         2.05957584123239   -1.16459503597938    1.22714698187246
C         2.37270855754640   -0.05589466581879    0.22147148921012
O         1.17958332019572    0.68593006594248   -0.07267254963070
C         0.97344252930411    1.62916303201550   -1.02538859726665
N        -0.13342361647141    2.28461103979637   -1.03742362381956
C         2.07333426811132    1.93648542689505   -2.10413975700365
C         3.54499402964010    2.19703554234479   -1.67956801212811
C         1.44367252412068    3.00034874865056   -3.03511630175169
C         1.37710206005622    1.95075494424846   -4.15935796728649
N         1.97421108127978    0.98139581428545   -3.25383028454483
C         1.81041287052671   -0.41485902022129   -3.24213369818765
N         1.41251968164055   -1.01487592018253   -4.31962690809363
C         2.06642535086448   -1.26998965086081   -2.01552703087032
C         3.01813699613944   -0.71284089115447   -1.00873150905994
N         4.29830264068061   -0.93129547073898   -1.06332038559666
O         5.11863818756729   -0.28348868060884   -0.14969192318214
H         2.95222319511814   -1.43984188272842    1.80002570889079
H         1.54642989543589   -2.02544644427338    0.78906956641823
H         1.33084792429675   -0.74459799025464    1.92910709047036
H         3.04423937264834    0.56259387560645    0.82776194843421
H        -0.86492423526819    2.01847321849870   -0.36378270586775
H         3.79164157427237    3.20556622232205   -2.03613424718802
H         4.12189107389263    1.39794382099526   -2.16031855313363
H         3.73561615704216    2.16409947997932   -0.60354116095638
H         2.07356562307670    3.83123781949568   -3.35989094618411
H         0.54460308385856    3.47054848358830   -2.61573463729043
H         2.02099764043343    2.24383387721839   -4.99995608438999
H         0.35974299264360    1.61539004843044   -4.36360926066063
H         1.30067886732447   -0.29235704075381   -5.02713374889310
H         2.40460199288157   -2.22230561020426   -2.44814228603473
H         1.05624227815733   -1.41353650131423   -1.62028890395772
H         6.00909674782617   -0.60205227298611   -0.39321628140886
