32
 energy: -49.284875046949 gnorm: 0.117760901784 xtb: 6.4.1 (79825abcba525fcdf90b791dcacef51065a7a4e7)
C         2.00889015387907   -0.95320942861893    1.22314526171853
C         2.47719027476135    0.02626331357491    0.14612160329397
O         1.22264811661119    0.64927513198984   -0.16749080866460
C         1.00419162200032    1.64954343886601   -1.05720447981662
N        -0.14282427475537    2.22913754854590   -1.11495236101714
C         2.02061314175938    2.03560136395306   -2.19111786374535
C         3.44187710237461    2.44831109963434   -1.71824427687296
C         1.44091116260910    3.08249558134010   -3.17242032819954
C         1.27770624244824    1.89653363544998   -4.14033381617005
N         1.95035531222325    0.97070533582396   -3.24224591177007
C         1.81368380584942   -0.42843825711168   -3.22767441402211
N         1.14820234459472   -1.06578342276213   -4.13885850563875
C         2.40356728533495   -1.33214445103776   -2.16150965283468
C         3.14719839027034   -0.66356081276663   -1.05253908310984
N         4.41051209729474   -0.96124845944773   -0.98220425965475
O         4.94444055912669   -0.77221721372952    0.28527694677526
H         2.75317465571631   -1.29340538855289    1.95189587097173
H         1.64898936551775   -1.86687016186723    0.74149059132258
H         1.23818608427070   -0.48652985361125    1.84637499561706
H         3.24270713609360    0.67531010068785    0.58633977924744
H        -0.89502330559258    1.91724259593175   -0.48516450554203
H         3.78631323299749    1.94802353043742   -0.80381291280077
H         3.52315061934419    3.53793767998717   -1.62557609230430
H         4.20421551592456    2.29805095323394   -2.48734596182509
H         2.19184063703497    3.85715264004882   -3.34162997387398
H         0.54393761789028    3.53616530340382   -2.73092641425413
H         1.75307508664595    2.04326933794039   -5.11992305145914
H         0.26140471408438    1.58492577602821   -4.38372531558093
H         0.74633337079533   -0.50340889169907   -4.88541328365950
H         3.13748599651977   -1.87694156558368   -2.77223424432248
H         1.66658409741133   -2.07106976457729   -1.83267249803972
H         5.90984990696590   -0.91316359903118    0.24258935416444
