32
 energy: -49.283314427372 gnorm: 0.130944881972 xtb: 6.4.1 (79825abcba525fcdf90b791dcacef51065a7a4e7)
C         2.41236931108894   -0.77410472652572    1.38710067586085
C         2.43638614862761    0.06573571938701    0.10931233800707
O         1.09761627872029    0.56557552626652   -0.02569841619103
C         0.93649885327072    1.53032963080618   -0.96545424124529
N        -0.09279020877558    2.29380265678557   -0.85328221212068
C         1.94863115874371    1.96817534664880   -2.08428946425960
C         3.30366651121912    2.53553931224219   -1.57841665803503
C         1.24792598932363    2.95727561218149   -3.04641696935140
C         1.27204535777620    1.90931811739995   -4.17389266542498
N         2.03035445602860    1.05750997319907   -3.27080525427160
C         2.07122885252464   -0.34339998732981   -3.38159675740460
N         2.11249794019149   -1.04259688342597   -4.47189553556635
C         1.89156756316153   -1.18402897600250   -2.13162899215392
C         2.87464625557368   -0.81831679444530   -1.06879414382983
N         4.08941935558280   -1.27476381534002   -1.14301592949104
O         4.93309242673613   -0.91815323491740   -0.09976827803715
H         3.34547579547836   -0.60225673564099    1.93532573999050
H         2.29913883457409   -1.84978305537991    1.22464845072517
H         1.58941624849533   -0.44358537950548    2.03029202286488
H         3.23540642003681    0.81518814163953    0.14025606828559
H        -0.66048809677060    2.20295395502828    0.00063827904567
H         3.39099156508091    2.51613800206998   -0.48429301816389
H         3.38892671593377    3.57774867483756   -1.90858206974336
H         4.00458612167832    1.85564011830213   -2.07005083140657
H         1.83344326598051    3.86855340595829   -3.18556737768464
H         0.19182628028409    3.16179129646711   -2.82705113880944
H         1.77853728782223    2.22507570538944   -5.09631612543603
H         0.35300821982260    1.48895684040046   -4.58361794217367
H         2.13615402155337   -0.40891530460294   -5.26750591087675
H         1.98129881407351   -2.24104140999754   -2.41989640693580
H         0.86706014813401   -1.17273845379870   -1.74751209813227
H         5.73963026823096   -1.45790110901044   -0.20872820383890
