32
 energy: -49.290933234376 gnorm: 0.123927038619 xtb: 6.4.1 (79825abcba525fcdf90b791dcacef51065a7a4e7)
C         0.83905529206835   -0.68893186175152    0.69768283914034
C         1.90019106363498    0.29393819279858    0.20108526374444
O         1.38728683357767    1.12536395845722   -0.85059575547947
C         2.13795959270881    2.09869029573474   -1.42416059495466
N         2.81928816538102    3.07256096453923   -0.93194425210207
C         1.97638218091251    2.01779599186198   -2.98469316139198
C         3.12951417705307    2.70683547445456   -3.76536032266476
C         0.56243237161412    2.35208486389590   -3.51760339307353
C         0.36581173552035    0.83627428885556   -3.70106109862684
N         1.73889829500444    0.57267762087117   -3.29940605193301
C         2.46127493287832   -0.56396821101383   -2.89604211180905
N         2.30739862819284   -1.77888231624670   -3.31987777440870
C         3.51383152043164   -0.32459790675579   -1.83012410677473
C         3.07094709546978   -0.48905596750887   -0.41357408324703
N         3.87956015834920   -1.17759241436204    0.33581828539114
O         3.68576765109812   -1.25746673818884    1.70818324284774
H        -0.08622746938428   -0.15134937579035    0.93353670645120
H         1.14070349479748   -1.28063103356378    1.56670308402526
H         0.72059116667581   -1.38490756568532   -0.14003666240064
H         2.09485629385712    0.97986530538831    1.03335882948531
H         2.96129050337099    3.11852168376753    0.08660252552337
H         4.12951139316895    2.29613054013856   -3.57447907551862
H         3.11847580597944    3.74032271887124   -3.39894370380062
H         2.96588117195323    2.58837838764080   -4.83981252512421
H         0.60866811716567    2.97109944743779   -4.41610422308714
H        -0.10961838488363    2.78035075802144   -2.76246715475556
H         0.16783873965760    0.51411711775362   -4.73262467934141
H        -0.41680847673469    0.48081365796531   -3.02997167655364
H         1.50688026024722   -1.97584595820796   -3.91610213053632
H         3.78838102989492    0.73229693627024   -1.95669801320408
H         4.43987141621376   -0.90604570052628   -1.87083393107677
H         4.46427425329651   -1.81910169973729    1.88761836993050
