32
 energy: -49.293081847869 gnorm: 0.123378426318 xtb: 6.4.1 (79825abcba525fcdf90b791dcacef51065a7a4e7)
C         2.30406085364616   -0.79124343909155    1.40457870216064
C         2.43802979840114    0.06807634441459    0.14669410981594
O         1.14550339777661    0.64703620642438   -0.08687274463362
C         0.93145052144394    1.65516023386885   -0.96875575228293
N        -0.14174843868857    2.36348504401764   -0.93094614705662
C         1.88026215442634    2.06494596390865   -2.15186399015404
C         3.26452688064655    2.61218799235138   -1.70659180607784
C         1.21483685581655    3.01244764823100   -3.17872626283943
C         1.54205729571474    1.90167436533359   -4.19317567001000
N         1.95078996267239    0.96083510914142   -3.16170303759181
C         1.85251221241951   -0.43862907048255   -3.25300302651275
N         1.77156944005150   -1.03862797260886   -4.39876934366118
C         1.95161088754906   -1.29499433246131   -2.00473515598356
C         2.93527523972904   -0.86899626846207   -0.96515008860963
N         4.14852215758378   -1.33007817032557   -1.03559031266212
O         5.13603342263235   -1.00346618583993   -0.11609744994415
H         3.22540992887077   -1.36096626182920    1.56981172155146
H         1.44375865808314   -1.46501231974044    1.35755358854469
H         2.21913647658452   -0.20880358888022    2.32856006536898
H         3.10877980940017    0.90575076525971    0.36910324790062
H        -0.72837707080169    2.19982080814392   -0.10100912873697
H         3.77525307685859    1.86326487694836   -1.08741368866947
H         3.30512750976089    3.59035925230949   -1.21261667911620
H         3.84449603390452    2.57795159373613   -2.63272302102336
H         1.74063510846669    3.94959700669687   -3.37342554203780
H         0.15227342667855    3.22438241157906   -3.00170298401293
H         2.37235398821080    2.09459322267512   -4.88635075177562
H         0.70213464187372    1.45766103259362   -4.72851647035294
H         1.78140679592068   -0.36325120073164   -5.15960918684088
H         2.23879016341768   -2.24807330013774   -2.47120448464330
H         1.02621185046255   -1.40794737269624   -1.43187658371477
H         5.94189905040713   -1.20629717033954   -0.62907260003190
