32
 energy: -49.286989949700 gnorm: 0.126481331013 xtb: 6.4.1 (79825abcba525fcdf90b791dcacef51065a7a4e7)
C         2.30400739733619   -0.85080768699283    1.40020803267820
C         2.42864512305860    0.09419328016412    0.20434415622288
O         1.14313457307245    0.65245910381602   -0.10577579029956
C         0.88097520593472    1.69368991651446   -0.93460700908778
N        -0.31909570297109    2.15708123230740   -0.93179566330660
C         1.86611489548550    2.06040663088761   -2.10205362291275
C         3.37939780352982    2.27462271272923   -1.82273966007444
C         1.32650568155442    3.06938987487844   -3.14405703355993
C         1.41308596722898    1.98696899173492   -4.23532555633836
N         1.63563744890430    1.02891072292651   -3.16351780050315
C         1.90340754560143   -0.34374987463147   -3.30703172255596
N         2.03564139414963   -0.97323698704277   -4.43201662860097
C         2.00279868888491   -1.16629492717171   -2.03624625187940
C         2.96373047265577   -0.72029717596317   -0.98386651003983
N         4.16991581937045   -1.20388757081811   -1.01186051937215
O         5.10676657359710   -0.81366804398298   -0.06456943528720
H         3.28976716828292   -1.21771151880233    1.70750172223310
H         1.57737461922955   -1.65183824873154    1.23695799419045
H         1.91683404739847   -0.39250958646359    2.31685929311427
H         3.02046118693739    0.97521075209864    0.47753235834432
H        -0.78275029724992    1.60916833389773   -0.19387258735437
H         3.83057860908082    1.51552203420601   -1.17058119994583
H         3.46419469068826    3.10523887013296   -1.11184927086426
H         3.95762087006067    2.27361487182624   -2.75059333217839
H         1.94729574919715    3.95642164885792   -3.28693759751979
H         0.24628567187500    3.18530853343901   -2.98599936432628
H         2.26850080522106    2.07940442726662   -4.91857010599147
H         0.52699828153008    1.82205405436276   -4.84921426328680
H         2.13489881374820   -0.39268470165295   -5.26160376948804
H         2.22181783414265   -2.19641648010841   -2.35137365140711
H         1.05582042352860   -1.17327666740433   -1.48809286454327
H         5.86254377862977   -1.39476107700146   -0.27631226543778
