32
 energy: -49.286786967786 gnorm: 0.120922044810 xtb: 6.4.1 (79825abcba525fcdf90b791dcacef51065a7a4e7)
C         2.28837849245149   -0.72289324811369    1.51091367805206
C         2.57234456153584    0.08962232034165    0.24685928110616
O         1.44669520163126    0.97638147588373    0.16352746432019
C         0.87309357847195    1.45068981201445   -0.97043157082780
N        -0.34569957388490    1.84653719128484   -1.08338153985552
C         1.83588167110640    1.90306390595988   -2.12642020311802
C         3.12676597745758    2.52224546405661   -1.52296190197831
C         1.21664159025994    2.79534524368070   -3.22885937528111
C         2.03559871345252    1.95818946097733   -4.22809785113848
N         2.25860130085870    0.95077161781184   -3.20264388042302
C         1.79890798905158   -0.37782570122688   -3.20498490022420
N         1.63816345692522   -1.25249705190197   -4.14755697524470
C         1.67676324498156   -1.03703491864422   -1.84414743165296
C         2.88866390138604   -0.65308188664514   -1.06076763406570
N         4.03906799000436   -1.08348274357225   -1.48603456022282
O         5.12794130173589   -0.84321833399748   -0.65902250568745
H         3.16265758823016   -1.24519403789475    1.91539866475800
H         1.42267501855753   -1.37834717565185    1.37963773605525
H         1.90447453808869    0.04064106965696    2.19635002741683
H         3.44216502170402    0.63813640379726    0.62582431501241
H        -0.92156126852672    1.62958380062355   -0.25813665577212
H         2.89506809370455    2.97591071227559   -0.55053578111074
H         3.42627995386510    3.39136579358723   -2.12079138807055
H         3.95456721640849    1.82789813859736   -1.35598205081716
H         1.45200090428502    3.86145733771285   -3.25398950695865
H         0.14629326578193    2.55542374081633   -3.27454053010033
H         3.00438369756731    2.40766542926533   -4.48602999375663
H         1.46326200592201    1.59755883925499   -5.08342464620446
H         1.81002558608216   -0.92013508216344   -5.09365779062099
H         1.63961290042739   -2.11851052394013   -2.03768156764929
H         0.77440434726106   -0.76713026042999   -1.28720163926943
H         5.89211139240407   -1.14386195307940   -1.18756844443340
