32
 energy: -49.285827239535 gnorm: 0.124927938626 xtb: 6.4.1 (79825abcba525fcdf90b791dcacef51065a7a4e7)
C         2.10832711589508   -0.29887364238972    1.57803874214465
C         2.39506880800902    0.42705801936121    0.26295158203232
O         1.21114084800087    1.15644749727603   -0.09296703600613
C         0.97242555866992    1.77671811452042   -1.27539238211131
N        -0.22415647686806    2.22406315176108   -1.42699530714369
C         2.07083299635814    1.83541883880089   -2.39698423018810
C         3.43843550245364    2.34185314822600   -1.86115062780092
C         1.50653928615074    2.70940876225574   -3.54272007443757
C         1.48073063082963    1.43784068555123   -4.41015689702456
N         2.04280308814131    0.65586705937199   -3.31985029743760
C         1.96878051598000   -0.70983195496692   -2.99445657763957
N         1.96279888429166   -1.56318404365636   -3.96969260764731
C         1.75732758931898   -1.23382563049732   -1.58659543627127
C         2.84204911735135   -0.63692316512788   -0.75179384535765
N         4.03910559767880   -1.12521154399987   -0.88654057248827
O         5.00405732773078   -0.49715822810470   -0.11082270416438
H         1.05868086287518   -0.07403933689231    1.79818061211413
H         2.83494988907235   -0.07241832267688    2.36355326557147
H         2.11203077552299   -1.39417800275128    1.60005074977879
H         3.19402528636597    1.13751762851275    0.50375342454112
H        -0.77050027867980    2.13174968096473   -0.55941173132448
H         3.89050566065537    3.20800456660195   -2.36167325757931
H         4.09301379142067    1.46383997007481   -1.91681914229979
H         3.36911221537536    2.72279192124574   -0.83873422612687
H         2.10070917161203    3.51376227481177   -3.98158008031885
H         0.52715818633385    3.10886314761771   -3.24853733293008
H         2.13573082671703    1.47841623149250   -5.29130974427607
H         0.46350617315421    1.16257017462404   -4.69067110065555
H         2.14979472473947   -1.11754030040118   -4.86498140680648
H         1.68390851149568   -2.32912367342451   -1.52865653139186
H         0.76366715225288   -0.86189513057931   -1.31902233964915
H         5.80993555089385   -1.04637040650277   -0.16210228600314
