32
 energy: -49.285056906986 gnorm: 0.125536661488 xtb: 6.4.1 (79825abcba525fcdf90b791dcacef51065a7a4e7)
C         1.83955595929347   -1.11480973352570    1.20318682748281
C         2.41681886908239   -0.02201345246020    0.30251172913977
O         1.28698955558238    0.83473494427519    0.07926210627805
C         1.06271240833312    1.75066569774219   -0.89573581165725
N        -0.09020325729439    2.29869961700864   -1.05496488616243
C         2.03644798314526    1.96465596286372   -2.10980342136512
C         3.44205409809562    2.43864525755349   -1.64770430103774
C         1.31298794801205    2.86335505692939   -3.14127902856554
C         1.56372378305977    1.78520665295349   -4.21119756028866
N         2.09748850074998    0.91397776302311   -3.17571112826526
C         1.83878441727888   -0.46687363673797   -3.22877556370037
N         1.50427801160450   -1.23045678526854   -4.22093337376805
C         2.01076911054264   -1.24195214777750   -1.93609258173608
C         2.98765740788188   -0.62251790948642   -0.99174226485746
N         4.24477627666714   -0.85858218389200   -1.22293968539900
O         5.23675812862780   -0.37049253372992   -0.38326027311809
H         2.50948495089842   -1.85564341719116    1.65388712489544
H         1.04747400556542   -1.69799418584309    0.72485869130953
H         1.29033975832215   -0.68620957463844    2.04867683786087
H         3.22273519138635    0.47292171976758    0.85623358422008
H        -0.72976442386150    2.06997900981310   -0.28142562587758
H         3.54503278822892    2.39860475438130   -0.55550433342966
H         3.59613569480244    3.48817138866032   -1.92561187916023
H         4.21788274163324    1.84592209456916   -2.13966419855679
H         1.73486466634792    3.80204889210144   -3.50664795322114
H         0.36800950354837    3.20783000786994   -2.70122519027323
H         2.38305148645066    2.08340486094903   -4.87968983668650
H         0.67465070207207    1.40125850196986   -4.71253631884314
H         1.25574521808922   -0.66359999035451   -5.02840637593929
H         2.33742455088415   -2.26098031530203   -2.18769327424024
H         1.01333373895805   -1.25970014397416   -1.48654123342532
H         6.02761712461505   -0.85354169708701   -0.69133311725648
