32
 energy: -49.283012617737 gnorm: 0.118423187660 xtb: 6.4.1 (79825abcba525fcdf90b791dcacef51065a7a4e7)
C         2.00205538133206   -0.42096017950134    1.51340316634965
C         2.44481099459726    0.27155545552480    0.22381354441070
O         1.23843735987411    0.93845426192478   -0.17653772987776
C         1.03470915966142    1.84842046319731   -1.16157919017617
N        -0.04693405892459    2.54272014541398   -1.21548197370940
C         2.09624370711288    1.94677676320458   -2.31543508615088
C         3.47095883650346    2.33970717545739   -1.70741041627176
C         1.54182442841323    2.77715643935210   -3.49784164055361
C         1.56272793624487    1.46620850191040   -4.30467288174731
N         2.04992896730084    0.71102826941025   -3.16076962166352
C         1.83447433814300   -0.67124312963529   -3.02148824505149
N         1.64956799809071   -1.49438470516160   -4.00514391299138
C         1.75486581505763   -1.29887342961295   -1.64268535657136
C         2.86881965370608   -0.82032062871999   -0.77096228085228
N         4.10078695927109   -1.18211995543760   -0.97316084211954
O         5.06038220094658   -0.39546207443109   -0.35053143845900
H         2.83488767958136   -1.07597262691885    1.79290133078065
H         1.13276182717829   -1.02946841458833    1.24818215850104
H         1.67507983629789    0.21530473603357    2.34312832646713
H         3.21115269058173    1.00511942868120    0.49890288755408
H        -0.92149707071221    2.22699834321254   -0.77369711048697
H         4.11286120545557    2.80182469717068   -2.46867079548503
H         4.14362630892615    1.51645029463181   -1.43862530607545
H         3.34314076731791    2.83028197002854   -0.73877514803951
H         2.18949475603590    3.59727186420644   -3.81494473106501
H         0.52839558855195    3.16815861291996   -3.33854972050266
H         2.26367756958098    1.43537814388094   -5.15014380170876
H         0.56423130061568    1.24882050403543   -4.68540191898401
H         1.49858974837915   -1.06901342972268   -4.91694030861307
H         1.75792677199822   -2.39543396091564   -1.71995580247912
H         0.84499468329695   -0.97167017443822   -1.13047321419339
H         5.92463876960156   -0.72574488598212   -0.66306491100698
