32
 energy: -49.289910410356 gnorm: 0.127969539430 xtb: 6.4.1 (79825abcba525fcdf90b791dcacef51065a7a4e7)
C         2.13312792821483   -0.91583116956573    1.27212769428269
C         2.42234244382832    0.14467584307383    0.20895712257919
O         1.13021369276663    0.68503132394472   -0.10535441065690
C         0.90179432659123    1.63249510493715   -1.04874579153109
N        -0.19657046670472    2.29893313748578   -0.98267980336837
C         1.99922883616577    1.94391639519061   -2.12882320045822
C         3.40995373164214    2.35133694319072   -1.62108928443277
C         1.35107934688081    2.96703312565972   -3.09221864999930
C         1.36184681840956    1.85738629104351   -4.15925476297837
N         2.01234921433427    0.93791899485004   -3.23860107827557
C         1.92177771231231   -0.46422490873537   -3.19081532945010
N         1.62895783473209   -1.15452478529758   -4.24773229580314
C         2.07481431820274   -1.31130054749268   -1.94165666859537
C         2.99888355053488   -0.67159673505069   -0.95845672292236
N         4.22980860255891   -1.03039305768709   -1.17203379296795
O         5.14315631954737   -0.59021291704122   -0.22368870029011
H         2.71356953472214   -1.81074549688903    1.02115746944769
H         1.07367809418948   -1.18752465958563    1.26546191771757
H         2.48604323712111   -0.59108453498814    2.25710500330413
H         3.20948931786482    0.86744037921881    0.45202308608552
H        -0.85487457795430    2.25735230654547   -0.19234993180927
H         3.34915199267266    3.20246656868277   -0.93044456835221
H         3.96640363443833    2.65530909996413   -2.51576424784560
H         4.00026412324350    1.62155874936205   -1.06054242124278
H         2.04547827788096    3.77242262177571   -3.34077129698170
H         0.33750956686094    3.25435276251322   -2.78332003422072
H         1.95119252695114    2.05928861455675   -5.06424595568185
H         0.33561211078027    1.57768990700544   -4.39971251251194
H         1.45917430521841   -0.65748092451961   -5.11906964281718
H         2.41331424170543   -2.29226680759674   -2.30435225400438
H         1.09299927394659   -1.36865943923422   -1.46203400637587
H         6.01272168301924   -0.73804291084377   -0.64286133193617
