32
 energy: -49.268729023556 gnorm: 0.112548198055 xtb: 6.4.1 (79825abcba525fcdf90b791dcacef51065a7a4e7)
C         1.00191000000000   -0.50595000000000    0.86722000000000
C         2.37184000000000   -0.00662000000000    0.40612000000000
O         2.32674000000000    1.38375000000000    0.05227000000000
C         1.46587000000000    1.73719000000000   -0.93456000000000
N         0.30827000000000    2.18509000000000   -0.59654000000000
C         2.03967000000000    1.84792000000000   -2.39278000000000
C         3.16158000000000    2.92262000000000   -2.37641000000000
C         1.08746000000000    2.10305000000000   -3.58576000000000
C         2.11900000000000    1.29001000000000   -4.38881000000000
N         2.45991000000000    0.62123000000000   -3.14274000000000
C         1.75983000000000   -0.57164000000000   -2.89086000000000
N         0.82833000000000   -1.10488000000000   -3.61701000000000
C         2.16039000000000   -1.47033000000000   -1.73619000000000
C         3.03478000000000   -0.83278000000000   -0.70722000000000
N         4.31696000000000   -0.94525000000000   -0.88858000000000
O         5.05681000000000   -0.23008000000000    0.04334000000000
H         0.63819000000000    0.10625000000000    1.70010000000000
H         1.04007000000000   -1.55090000000000    1.18803000000000
H         0.24579000000000   -0.42619000000000    0.07848000000000
H         3.02255000000000   -0.06975000000000    1.28570000000000
H         0.26418000000000    2.15536000000000    0.43151000000000
H         2.97569000000000    3.65666000000000   -1.58159000000000
H         3.20429000000000    3.50448000000000   -3.30490000000000
H         4.14346000000000    2.47554000000000   -2.19953000000000
H         0.93979000000000    3.13692000000000   -3.90502000000000
H         0.10242000000000    1.62599000000000   -3.49971000000000
H         2.97853000000000    1.85874000000000   -4.76941000000000
H         1.77886000000000    0.67208000000000   -5.22048000000000
H         0.59433000000000   -0.55694000000000   -4.44170000000000
H         2.68992000000000   -2.33571000000000   -2.15944000000000
H         1.25582000000000   -1.87797000000000   -1.27481000000000
H         5.95980000000000   -0.28873000000000   -0.32391000000000
