32
 energy: -49.284843413444 gnorm: 0.120014851354 xtb: 6.4.1 (79825abcba525fcdf90b791dcacef51065a7a4e7)
C         1.91133534942418   -0.78466112568828    1.18760159741408
C         2.40143464649770    0.26589380228836    0.19021057554024
O         1.18315011735856    0.97177100066380   -0.08888202159844
C         1.01701850307234    1.90664488051475   -1.05752099372709
N         0.14227458815421    2.82947070687624   -0.86226427732931
C         1.97452355240906    1.90531869985425   -2.30295075657798
C         3.42349476686393    2.26525468415034   -1.87299901556239
C         1.35374156262456    2.80517792063919   -3.39834087863175
C         1.28013944863911    1.55957681118745   -4.30003856048841
N         1.81904788455017    0.73731222605031   -3.22782806965407
C         1.88148611165606   -0.66712793576562   -3.21584895570314
N         1.45650331631675   -1.37571269252810   -4.21416159943372
C         2.28264115456188   -1.36432366362653   -1.92963457428386
C         3.04774692591115   -0.62787488171984   -0.87984251264035
N         4.28682920280099   -1.02041202800150   -0.86906554870379
O         5.08937931176931   -0.43694284139763    0.10191233548674
H         2.65351260963995   -1.42862736084692    1.67262795359084
H         1.13615764727948   -1.40516885796194    0.72894549377420
H         1.38973141059720   -0.31373819770308    2.02804839482157
H         3.18361145732876    0.78542532278079    0.75532673378459
H        -0.26330894532112    2.66913281701787    0.07021003874302
H         4.25094687580960    1.57034079122389   -2.06671608553755
H         3.38014260203419    2.40669291250138   -0.78644727654686
H         3.71266297019824    3.14936639149813   -2.44744101664288
H         2.03769774753690    3.61168943586357   -3.67103787472067
H         0.39373584336651    3.23202268372368   -3.07977032172679
H         1.95083477802105    1.47385287467169   -5.16601844439825
H         0.28005807725310    1.20721642771740   -4.55476800080270
H         1.29834439683282   -0.76044926071237   -5.00885933458840
H         2.86254300808853   -2.27501455634629   -2.13647031183986
H         1.33779680251164   -1.66920902503369   -1.46963154252618
H         5.88905191454974   -0.99640424570585    0.06684113507528
