32
 energy: -49.296777681934 gnorm: 0.118385487715 xtb: 6.4.1 (79825abcba525fcdf90b791dcacef51065a7a4e7)
C         2.30763875107470   -0.91116284627234    1.36639174437141
C         2.43804838465644    0.06145324154009    0.19350508949383
O         1.14369572404280    0.63222708558539   -0.04988951060929
C         0.96429509794401    1.58328110169492   -1.00023788624199
N        -0.12358260621729    2.26985151255430   -1.00750425248450
C         2.00664807201364    1.92963960308513   -2.12338038284806
C         3.36770111196026    2.44388661177015   -1.57838989062565
C         1.49349312456809    2.95433292338766   -3.16341500853415
C         1.66366278458005    1.90176655531897   -4.27388537496527
N         1.85731841998099    0.91904946397513   -3.21892504382592
C         1.73398187696703   -0.48137807283707   -3.22814637819032
N         1.54492724791604   -1.22834406655483   -4.27008257092828
C         1.83973905318017   -1.23401126870375   -1.91524371078111
C         2.92723787402178   -0.76740037301910   -1.00451452958346
N         4.18711259023686   -1.03397597175257   -1.18109201017486
O         5.02555218689349   -0.49756150520280   -0.21331125592433
H         3.17538576505706   -1.57960590249114    1.39752318852649
H         1.40827709357244   -1.49795344513048    1.15873544015419
H         2.19704618606887   -0.33416804514296    2.29107340734272
H         3.11199168817883    0.89112196494263    0.43541433881676
H        -0.69514559946961    2.00818650391117   -0.19229767687420
H         4.05567522397156    1.69511535999112   -1.16469694702125
H         3.18119514200927    3.26372994584821   -0.87443584925075
H         3.90092022684157    2.87915004880026   -2.42778879106018
H         2.01681816625813    3.90272835772669   -3.30233058648891
H         0.41063152959994    3.07618336732933   -3.02978165975132
H         2.62331460869757    1.99209107972860   -4.80115365141359
H         0.76148653762947    1.89333757041021   -4.88643303896749
H         1.41503829724420   -0.76997549180323   -5.16904582364858
H         1.92800936917549   -2.26840156237624   -2.27672700006151
H         0.88260298593287   -1.19694726065770   -1.38627723248239
H         5.86275507815240   -0.89236007902434   -0.52464504663770
