32
 energy: -49.286898327681 gnorm: 0.128624269538 xtb: 6.4.1 (79825abcba525fcdf90b791dcacef51065a7a4e7)
C         2.24833301977019   -0.88026699520307    1.47610653934686
C         2.41391148994734    0.00323630158654    0.23890910402011
O         1.21940879090287    0.74194406267252   -0.05748021123282
C         0.97839392161595    1.62336835001477   -1.05990396533640
N        -0.21453982405384    2.06008406497864   -1.26263055825459
C         2.04160875311235    2.03538355184549   -2.14051983604454
C         3.39071841747670    2.53737609417385   -1.55585190418373
C         1.47611472724102    2.98972981913888   -3.21961024418457
C         1.52616424301749    1.87470594870727   -4.27990025900959
N         2.12311771789017    1.03526293072414   -3.25269109319573
C         1.89690940325971   -0.35194609956671   -3.28391816523616
N         1.36239450842062   -1.02719940194465   -4.25224542868579
C         2.03716996564848   -1.25355321629264   -2.07198322744665
C         2.93816825288086   -0.75543869733934   -0.99036821356307
N         4.17319523947494   -1.15620381919527   -1.05055208847208
O         4.94772710385918   -0.79235838327826    0.04262580666820
H         3.20119519037319   -1.40895301780338    1.59149689890182
H         1.45728444023280   -1.62965215186951    1.38145051986900
H         1.96958216527521   -0.11063028485665    2.20421860966978
H         3.19572970782882    0.70270649926451    0.55603929006933
H        -0.82589006631673    1.73719894024640   -0.49993096642169
H         3.63879767859086    3.54405437978923   -1.91663456781847
H         4.18503607370884    1.78167050883513   -1.57700336804828
H         3.22290306179230    2.65064409470965   -0.48148523512640
H         2.00455057090300    3.93119507095863   -3.38398563605195
H         0.41522590637742    3.23465659157182   -3.07882525241865
H         2.16799280312238    2.01039964500443   -5.16123180674179
H         0.58047489933175    1.55145656983074   -4.71623634471400
H         1.26470712221007   -0.59773532923757   -5.16937442933250
H         2.34762654494418   -2.20874726240332   -2.51880101588585
H         1.03320113760317   -1.44902268249133   -1.68323266778378
H         5.84600853232059   -0.91294365428137   -0.32104023731279
