32
 energy: -49.291398057659 gnorm: 0.124693544846 xtb: 6.4.1 (79825abcba525fcdf90b791dcacef51065a7a4e7)
C         1.99685843457735   -0.94637969797622    1.34868519749364
C         2.50592788147330    0.06937298619267    0.32509025818366
O         1.30182537118998    0.81164154028278    0.08106765625624
C         1.06466029030834    1.60472002290595   -0.99346924730039
N        -0.13933860598106    2.04512869098335   -1.09994207438259
C         2.04503061844197    1.93406549362289   -2.17597443522389
C         3.41287767893316    2.46065328388622   -1.66058166977636
C         1.39308842518274    2.87887498439757   -3.21390641535923
C         1.57425331594958    1.78898247083680   -4.28596597226796
N         2.13106826240036    0.91197272418227   -3.26764002813066
C         1.72822739520710   -0.43043368277575   -3.15737435010190
N         1.48389314004560   -1.17298653656989   -4.19093466158700
C         1.83683187321293   -1.08453872819660   -1.79293073420917
C         2.98662211146838   -0.64872485053904   -0.94566707374915
N         4.20556371337576   -0.96575937213584   -1.26690984340530
O         5.14369700671214   -0.64946121672460   -0.29367687007852
H         2.86091201163943   -1.60136175420547    1.50736754446255
H         1.17982924667344   -1.55454792695993    0.95007455427168
H         1.72587621762334   -0.41955219397978    2.27021181635882
H         3.23451740562542    0.75619306321764    0.77062961975032
H        -0.71499517228391    1.78436582470481   -0.28733095384868
H         4.09750081761483    1.69273335874013   -1.27756892596459
H         3.28126305297090    3.20715176024425   -0.86818248372642
H         3.87745690944192    2.89635353772012   -2.54916863918596
H         1.85739432856893    3.82876553660057   -3.48730812411754
H         0.33670730214204    3.07513256609874   -2.98843688083523
H         2.28216051374060    2.08552872809542   -5.07211461871174
H         0.60775803586140    1.36294104896436   -4.55722831990924
H         1.58033584430155   -0.79987386045491   -5.13252563172968
H         2.00538671602286   -2.13436734537539   -2.07199029429048
H         0.82924433835265   -0.94926758704514   -1.38826074647688
H         5.93003490380425   -0.33799362355704   -0.78190220012383
