32
 energy: -49.285728513937 gnorm: 0.134532598850 xtb: 6.4.1 (79825abcba525fcdf90b791dcacef51065a7a4e7)
C         2.52363200444730   -0.67764227217508    1.44911610076253
C         2.50158108836911    0.20061304600654    0.19738403104599
O         1.17604290861674    0.74025653280368    0.08735698422187
C         0.90342789604778    1.50417299490301   -0.99982424258893
N        -0.30450529289978    1.88880215639600   -1.21861048466142
C         1.96926403142651    1.93704921720545   -2.06964873617700
C         3.35926582627995    2.41779018061780   -1.56893614489789
C         1.26711499600851    2.93355879769948   -3.02303837155268
C         1.52373318818467    1.98976633602261   -4.21190379451456
N         1.98831116120053    1.00781656365741   -3.24437156373709
C         1.87302961263125   -0.38970640389489   -3.34503886506816
N         1.98279361493013   -1.17352101845576   -4.37115648440578
C         1.76283939552530   -1.09154945208899   -2.00465490461690
C         2.82290337254353   -0.59424858723762   -1.07796009468924
N         3.96132164253151   -1.20595996681485   -1.21702658544124
O         4.91214267499598   -0.92863936130306   -0.24421947664693
H         3.52345406325872   -1.12594282632679    1.43676174146254
H         1.80547342154885   -1.50017589467045    1.38600964346955
H         2.42655186595924   -0.10405429571558    2.37742756211919
H         3.30871095322448    0.92713240589390    0.34496738998340
H        -1.01083609956162    1.61076086542137   -0.52326566657121
H         3.20717831930377    3.14008439305433   -0.75636671527147
H         3.81606437088406    2.89666619771478   -2.44328830900132
H         4.00185853016972    1.63028888277965   -1.16623069072425
H         1.88596919257975    3.83244804128125   -2.98256429078385
H         0.24518019491764    3.27777838685970   -2.81698798332198
H         2.39960442602560    2.37588397730998   -4.75122254367610
H         0.70991291228825    1.80289431666101   -4.91331884036137
H         2.06941312288373   -0.60640120671480   -5.21138264571639
H         1.87268833997091   -2.17303659181732   -2.16819042320505
H         0.81224282616553   -0.86817869124146   -1.51093394552436
H         5.62658887658514   -1.57823311926378   -0.39015747095832
