32
 energy: -49.286666872011 gnorm: 0.127194843401 xtb: 6.4.1 (79825abcba525fcdf90b791dcacef51065a7a4e7)
C         2.23121949550878   -0.79817492833249    1.53034984761229
C         2.52884083404039    0.05512443490299    0.29667503768263
O         1.34239681844403    0.83289718848289    0.07805978481516
C         1.03863247207727    1.59718370734384   -1.00057067160128
N        -0.15756136499514    2.02790361991692   -1.19681099117562
C         2.07180994156921    1.88005105825530   -2.14967612165397
C         3.36805189047483    2.39558735480801   -1.46563729959507
C         1.44618251618226    2.86919833956612   -3.16218507314881
C         1.70023795205824    1.82683580163476   -4.26623863993850
N         2.08515189651282    0.86170569866511   -3.24813165767492
C         1.70159828240752   -0.49011270561765   -3.20377141493131
N         1.38935139201162   -1.15985284117803   -4.26832807920618
C         1.74877810278711   -1.14473175449812   -1.83607164613374
C         2.89652561263222   -0.69122021416156   -0.99535174193712
N         4.10426169481957   -0.86970661121449   -1.44149364094422
O         5.01078471314898   -0.48789264860635   -0.46182270795234
H         3.13491942035882   -1.26099815521969    1.94252852907510
H         1.50040776137482   -1.57958951875775    1.30319091969408
H         1.72426990462737   -0.11889134200409    2.22444336440907
H         3.38019834222548    0.72078137513331    0.47877684443585
H        -0.90449242298046    1.55252947082138   -0.67161769685664
H         4.15962430379018    1.63953263597414   -1.54872155470765
H         3.24804031099835    2.69376098096207   -0.41722490044630
H         3.71691252638784    3.33257206551123   -1.90791693545255
H         1.97211144666254    3.81607924915303   -3.30159753502265
H         0.36526095164967    2.85634643074068   -2.97051340101859
H         2.58643541446125    2.14607443067160   -4.83178504084609
H         0.95212851833853    1.43219202192133   -4.95456722113377
H         1.40153491133938   -0.65197458011627   -5.14981491962531
H         1.87491852673404   -2.22201596141507   -2.01487996883871
H         0.73849597784958   -1.06280403216686   -1.42387437860613
H         5.83734155839361   -0.89776970470203   -0.78199126391704
