32
 energy: -49.289811696163 gnorm: 0.120379388950 xtb: 6.4.1 (79825abcba525fcdf90b791dcacef51065a7a4e7)
C         2.27363245662914   -0.76624105192585    1.56667137486689
C         2.37503928907341    0.00006929057265    0.24714990829573
O         1.11987492080624    0.60991327680975   -0.08904229582084
C         0.94311774100129    1.50126462226014   -1.09606761338027
N        -0.22024803917704    2.00136488864864   -1.32275989056193
C         2.02562609544370    1.96573607560283   -2.13546882420377
C         3.42561845337794    2.40936348706053   -1.62837307903833
C         1.47974305156517    3.03520568962784   -3.11181038570910
C         1.44308185726927    1.94622865775455   -4.19936869857388
N         2.10121096042387    1.01801746755141   -3.29302065756270
C         1.83057573456830   -0.36138020438934   -3.27037418060746
N         1.50456927225200   -0.98390448991446   -4.35918737951136
C         1.91209890851798   -1.20978924657624   -2.01541969393634
C         2.88725884010773   -0.79765689777171   -0.96232091441466
N         4.15853451154900   -1.01391946447008   -1.12546222775943
O         5.06077369682701   -0.80059119642327   -0.09212950692654
H         3.25145822355528   -1.19026928256057    1.82128281736794
H         1.62644138077117   -1.64506708978803    1.63811527492640
H         1.90182379340138   -0.08204053254728    2.33726715166887
H         3.12405305383886    0.76481356378093    0.48212737288962
H        -0.85416087592499    1.62181904308324   -0.60595164707981
H         3.95132078714984    3.03025401958448   -2.36542166589149
H         4.11059514498704    1.63795980018459   -1.25659070676470
H         3.28887606858394    2.95169510613726   -0.68899386649400
H         2.21755905857818    3.82247309545959   -3.28050569228932
H         0.48436247107562    3.43979021568210   -2.88636973558479
H         2.02231233738378    2.14275352744175   -5.11204169743839
H         0.47333609550299    1.53519050837103   -4.48194342449149
H         1.81641671970443   -0.40586045617564   -5.13618422207678
H         2.09738692869056   -2.24092670023803   -2.34835960139779
H         0.90337982553924   -1.11346948105025   -1.60250682748761
H         5.94144499418656   -0.96596702807883   -0.48042349611330
