32
 energy: -49.287803789240 gnorm: 0.118872285727 xtb: 6.4.1 (79825abcba525fcdf90b791dcacef51065a7a4e7)
C         2.01747037404949   -1.09103745708848    1.24756328264058
C         2.35491982740501   -0.06212047522606    0.16769776786297
O         1.12720011347029    0.63840625311590   -0.08198022969582
C         0.98930343767328    1.68978521275822   -0.92781540567543
N        -0.14577257063693    2.29504597535996   -0.94091093702631
C         1.99551568579394    2.02223171673499   -2.08752624898471
C         3.47459345165818    2.28712514539430   -1.69244341246972
C         1.33849619849754    3.06636077775988   -3.02193318695830
C         1.37088774442366    2.03528912084955   -4.16466680981671
N         1.81023367257941    1.03780264743184   -3.20124967525950
C         1.86038125241471   -0.36382009625393   -3.29837391647906
N         1.55528541607607   -0.95149332619915   -4.41232525486411
C         2.27062161160396   -1.27469277767644   -2.15672226567913
C         3.06224477798871   -0.78606742678513   -0.98865332769377
N         4.30033474893318   -1.18112071077447   -1.01299595245006
O         5.08811155516739   -0.54776898816597   -0.06136875679427
H         2.97855057623324   -1.41340810067149    1.66370289738244
H         1.36040682442175   -1.89399336290119    0.90140574742201
H         1.48636345052358   -0.45236223701232    1.96185264479775
H         3.06657983055054    0.63423821488510    0.62562184011169
H        -0.80333785874666    2.05984753251436   -0.18460136079186
H         4.00904873989914    2.83951197391973   -2.47623864197676
H         3.95737028120979    1.31342590725296   -1.54644617647174
H         3.46439975797579    2.84013049911790   -0.74939699568673
H         1.99511829518192    3.91194417829223   -3.23747129558574
H         0.35687262464463    3.41813784474733   -2.67847621884686
H         2.14008734914293    2.24075424573632   -4.92177844270134
H         0.37601681760270    1.78197527441761   -4.53245970033272
H         1.05377036565527   -0.40917020239099   -5.11195094329459
H         2.96309295204708   -2.02704340452695   -2.56030257788378
H         1.44824704184427   -1.96673938775489   -1.95163626576715
H         6.03306322648737   -0.72520946299214   -0.23249601751676
