32
 energy: -49.288071687073 gnorm: 0.130360953365 xtb: 6.4.1 (79825abcba525fcdf90b791dcacef51065a7a4e7)
C         2.24009358606948   -0.86564345218006    1.48827676649377
C         2.49396104788587    0.01077108464931    0.26104382993431
O         1.30753275039103    0.81214768742001    0.15830182748913
C         0.94126924390451    1.61470595237892   -0.87203869564064
N        -0.16484993801582    2.26344400442675   -0.76933086504088
C         1.79872721233282    1.94635475328200   -2.14588635281687
C         3.18721719487285    2.36579955709395   -1.58902763952803
C         1.38319094886729    2.95389073361551   -3.24461163622243
C         1.67675308002083    1.85882029245979   -4.28607220014887
N         1.74203868104375    0.88813676640762   -3.20455106299894
C         1.93233776762107   -0.50378634821438   -3.25775375051545
N         1.85001577145375   -1.10847890154791   -4.40095141071665
C         1.85985575336388   -1.26350023033802   -1.94667179717393
C         2.90273107032238   -0.76072781855965   -1.00357158322474
N         4.12113197191636   -1.05135434509443   -1.35079183839138
O         5.06708466613398   -0.52369562660147   -0.48241933817245
H         3.14866047787377   -1.36407527190047    1.84442573115319
H         1.45768546158963   -1.60656419725597    1.30074087885850
H         1.75549892272357   -0.17420063290872    2.18632026893204
H         3.35737378935474    0.59866776906286    0.59265469306181
H        -0.82006686305733    1.96643820243526   -0.03299336145997
H         3.06257158325988    3.03610833167984   -0.72864502574973
H         3.81767567312389    2.81116135554607   -2.36790749950094
H         3.79856332062770    1.52781330938126   -1.24364331149144
H         2.06265403015127    3.78926443009924   -3.42654908824935
H         0.31040492615017    3.18679135641632   -3.23111811505937
H         2.60249123355597    1.94717769008520   -4.87113955942464
H         0.91129929435635    1.67454163699829   -5.04061149735557
H         1.85755278459007   -0.44776591156022   -5.17458527934548
H         2.01591627142684   -2.33419494773196   -2.14079295862540
H         0.90560594927668   -1.23937359306011   -1.41177560922040
H         5.86137018096453   -0.78137149073597   -0.98879567472607
