32
 energy: -49.283245151636 gnorm: 0.115524527734 xtb: 6.4.1 (79825abcba525fcdf90b791dcacef51065a7a4e7)
C         1.69445982659158   -1.28043008155947    1.16088402692314
C         2.22246573522751   -0.20509718547205    0.21034697529832
O         1.10822699384448    0.59631184853057   -0.20987680832197
C         1.07242199908761    1.70123790195085   -0.99582000323986
N         0.03404844376936    2.45897097552578   -0.94551560977402
C         2.09413991690844    1.99152425756165   -2.15329106199597
C         3.46097207069492    2.34377717922726   -1.50397009254646
C         1.61968650955441    2.99578695578430   -3.23094906326891
C         1.49605715540297    1.75473741624800   -4.13345110179712
N         2.12509925829705    0.87954121810635   -3.15645859434139
C         1.71887219912012   -0.46618773272469   -3.13438176093734
N         1.09410969411724   -1.06855171240376   -4.09675399711737
C         2.29691264683125   -1.37487158493843   -2.06596349658459
C         3.06915173170404   -0.75573448833772   -0.94787448431188
N         4.35217539278372   -0.68264205641307   -1.14289800857669
O         5.14072040943745    0.04028668312576   -0.25808627891686
H         2.53327472941026   -1.93424672227041    1.42486037736012
H         0.79472200120095   -1.88080497624226    0.99865719434512
H         1.37534632743886   -0.76693158176229    2.07448993056862
H         2.92373525560498    0.32398697806943    0.86560327896582
H        -0.64524037269666    2.20607907840497   -0.21453888295757
H         3.96637837111454    1.52390146792144   -0.97720932883559
H         3.27046969633092    3.17664559617656   -0.81657071389386
H         4.19089403636680    2.63469368825024   -2.26412591683715
H         2.46223435819750    3.61423611232186   -3.54757864602223
H         0.62980076654964    3.46223577804190   -3.14236954778274
H         2.07647385731599    1.74100455231342   -5.06620500409144
H         0.48268567781863    1.40992651883312   -4.34175706554040
H         0.84939201432415   -0.48006319475859   -4.88978762893589
H         2.94866055642279   -2.03469429683440   -2.65611918168468
H         1.51589055203710   -2.07091522825475   -1.74531347143209
H         6.04537613135102    0.14490942042312   -0.61072692793016
