32
 energy: -49.292978731246 gnorm: 0.124115413997 xtb: 6.4.1 (79825abcba525fcdf90b791dcacef51065a7a4e7)
C         0.88578608485828   -0.86064004812145    0.52077508670436
C         1.94788437906374    0.17149286924606    0.13959189512731
O         1.34736024905807    0.99910381158354   -0.86778259285874
C         1.97641875353994    2.04114414153353   -1.46635392533205
N         2.49017236512165    3.09739001238789   -0.94165262774449
C         2.04249904666894    1.97236633340953   -3.03441512899635
C         3.31008999516820    2.73277925307048   -3.51286608932080
C         0.66596934204874    2.33168579815308   -3.64355539045412
C         0.57318137366138    0.84937841832189   -4.04871377896916
N         1.85213783421811    0.53980395481206   -3.42854389140967
C         2.22652831469240   -0.57626097632048   -2.65995751427834
N         1.54021707593766   -1.67073403248504   -2.55779857856380
C         3.51314121646895   -0.30557687428258   -1.90318011902823
C         3.24540832286791   -0.41513043839017   -0.43821455406391
N         4.17786623571701   -0.97431000799672    0.27408233278966
O         3.92266920314213   -1.09381969740848    1.63346194064566
H        -0.00220983988528   -0.41345906583678    0.98149469557752
H         1.25126154244255   -1.49145248888680    1.33612720615617
H         0.54091526491186   -1.53549475189575   -0.27031600878893
H         2.13157498761000    0.73411041260810    1.06197417596691
H         2.45774926640961    3.18561816038851    0.08347132130125
H         4.24399241787404    2.41118313993052   -3.03379322520287
H         3.15542110440333    3.78987497061042   -3.26567177467892
H         3.56035590442814    2.65795993921698   -4.57448014209201
H         0.93202106477364    2.94729649184558   -4.50544893765169
H        -0.12525967230856    2.82085446947809   -3.06048998486482
H         0.57201545354933    0.77829093117437   -5.14509289941130
H        -0.25093005704444    0.28056596207534   -3.61685685283949
H         0.70228827973902   -1.58712350393467   -3.12875604742778
H         3.90891444073386    0.69964421636438   -2.10645131979379
H         4.27235762556901   -1.05298882979807   -2.15268866196231
H         4.46433616444276   -1.85848710279293    1.90838735685805
