32
 energy: -49.292724354611 gnorm: 0.117665789279 xtb: 6.4.1 (79825abcba525fcdf90b791dcacef51065a7a4e7)
C         2.31702452186048   -0.86523063983805    1.39465800292404
C         2.47459859844092    0.09833147413545    0.21764047905945
O         1.30666087490738    0.92590111847141    0.11076478391183
C         0.84479445683399    1.59470904944860   -0.97515678640031
N        -0.36847678283235    2.01830638623346   -1.03387438206639
C         1.92683609551387    1.88238411251586   -2.07712858530930
C         3.32503227520424    2.27759305472352   -1.52686747955403
C         1.40228382973115    2.89357830689643   -3.12466264512614
C         1.68856080774991    1.90186447433741   -4.26683043756048
N         1.98723654879453    0.92698563736010   -3.22924635848967
C         1.85426217141766   -0.47089217866588   -3.29816377690390
N         1.70551630965739   -1.05404445284112   -4.44583051793986
C         1.79606792516690   -1.16774933103375   -1.95192523325743
C         2.87405813999672   -0.71759951811128   -1.02181274367784
N         4.11240629283277   -1.03882552531014   -1.25166948483063
O         5.05729090507799   -0.59651542424320   -0.33576782182143
H         3.26480486163502   -1.22748785732802    1.80848440600626
H         1.69784011393763   -1.74469048039024    1.19602068484823
H         1.79739082003852   -0.22045298087159    2.11189748585765
H         3.31156588790226    0.76735395218570    0.44778067421142
H        -0.97232894750197    1.76955976754886   -0.23813431188193
H         3.21975954728510    2.54127236785782   -0.46644327773012
H         3.92182435231434    3.08007782639442   -1.97668549397577
H         3.95548626031414    1.38964630522822   -1.62347861261716
H         1.91320250602902    3.85181757313730   -3.24024872474239
H         0.33454527694876    3.13426851052771   -3.03923880770366
H         2.52652899994551    2.23829357332156   -4.89271120488322
H         0.86106223388410    1.63227239608789   -4.92392547464773
H         1.89428218284539   -0.39096649970428   -5.19403028809948
H         1.77635415640939   -2.25551147637431   -2.10943699054426
H         0.83679209783752   -0.91801355352240   -1.48855643507885
H         5.93740388779154   -0.94397870947166   -0.57737437061679
