32
 energy: -49.292162548845 gnorm: 0.124224561646 xtb: 6.4.1 (79825abcba525fcdf90b791dcacef51065a7a4e7)
C         2.14822520802209   -0.95636743614916    1.36147437101361
C         2.35476754332766   -0.03586411318275    0.15786907512200
O         1.12595467913927    0.68455836226073   -0.01928309920500
C         1.00078553628216    1.68463314507268   -0.92704597865595
N         0.05525450440327    2.55574382491707   -0.88180369394896
C         1.95253990676821    1.93883373031401   -2.15075291004165
C         3.36343547481111    2.40027274528769   -1.69208339515080
C         1.31854465694452    2.88540157922290   -3.19815719773379
C         1.46291114650928    1.77287631471257   -4.25240762242529
N         1.88544046910104    0.86726342180937   -3.19528371628134
C         1.74681598730134   -0.53173793052293   -3.20380961823891
N         1.65060538355382   -1.15019803598608   -4.33852610357721
C         2.00635410331977   -1.36683923634281   -1.96421271371280
C         3.00292498951379   -0.75573449928771   -1.03512471765070
N         4.27998593822277   -0.94719037680395   -1.18340288117165
O         5.12565764757853   -0.42018856728871   -0.21674396005873
H         3.08054590651959   -1.30721286841528    1.81804392663787
H         1.46752206160599   -1.75653917771788    1.05706651267778
H         1.64412232273362   -0.34190599815187    2.11546861113006
H         3.06245117682045    0.72673755580491    0.50238672886133
H        -0.70503966868075    2.55158891524670   -0.18779354260234
H         4.04474811511360    1.54916696848224   -1.56347288720542
H         3.26598741012120    2.94300136024348   -0.74422877243258
H         3.95037488485796    3.08213586544767   -2.31322764456443
H         1.95387862191845    3.75661892284639   -3.37122259476175
H         0.29257356411449    3.05787897125874   -2.84754416200712
H         2.28390862420382    1.91214968782703   -4.96911401053451
H         0.54413783123858    1.44268344762326   -4.73824292480016
H         1.50469792076235   -0.53919996342929   -5.13883866223936
H         2.24900087181374   -2.36115053835205   -2.36532699856591
H         1.06739207933462   -1.32491182644007   -1.40396175390319
H         5.93674680401142   -0.90891409613397   -0.45545940041475
