32
 energy: -49.291399695168 gnorm: 0.121876256456 xtb: 6.4.1 (79825abcba525fcdf90b791dcacef51065a7a4e7)
C         2.26052599149955   -0.79400382973699    1.40214906724335
C         2.55969148382412    0.18098682145779    0.26261186242113
O         1.32734621271286    0.89493354377092    0.08378881142100
C         0.93601372392926    1.52548850043269   -1.05160082688315
N        -0.33084290235692    1.59777361518299   -1.26316340298656
C         1.98268131733716    2.01519275147851   -2.11583275836406
C         3.37589046144905    2.30872480683877   -1.49395079495571
C         1.49120060452922    3.02902047930747   -3.17677404335594
C         1.47162279256318    1.91477248573952   -4.23887865999977
N         2.04806281553473    1.02775470870036   -3.24033319230792
C         1.76221054053207   -0.34870253514399   -3.25250406175767
N         1.49141810703924   -1.08015098970287   -4.28738834048289
C         1.87223229196358   -1.08091212645774   -1.92845005581693
C         2.94098442781518   -0.61462235544910   -0.99563189106976
N         4.12170905346916   -1.13313382006879   -1.15860932831386
O         5.11184344675164   -0.64828552744834   -0.31488127231470
H         3.21186491196875   -1.17411277825904    1.79104700634406
H         1.57827135720114   -1.62124944398227    1.18653590435493
H         1.91658964026620   -0.18774078775594    2.24733709281501
H         3.42755053350976    0.79678122572468    0.52469533562575
H        -0.96912472338533    1.15958890389408   -0.58470555530687
H         3.18539323539759    2.76614134478429   -0.51436438426193
H         3.85014666765748    3.09163887565289   -2.09777648793531
H         3.99048132929242    1.41119638334315   -1.38451517296462
H         2.35145990601504    3.68199335800525   -3.33864092146841
H         0.60826023293634    3.64341110959315   -2.95714921062021
H         2.11014875833672    2.09535016234447   -5.11453742116677
H         0.46968089845090    1.57941135091274   -4.50879165418513
H         1.18252160882974   -0.65849525455112   -5.16025557270957
H         2.13634886678321   -2.07268283350396   -2.32222459369040
H         0.93438544166303   -1.06621986578471   -1.36496435694565
H         5.91494118826865   -0.99802152399068   -0.74664749816463
