32
 energy: -49.282655229755 gnorm: 0.115586111717 xtb: 6.4.1 (79825abcba525fcdf90b791dcacef51065a7a4e7)
C         0.75663525037698   -1.11066075233294    0.02647224148485
C         1.79843558188605    0.00881141859829    0.01720122305631
O         1.17562239294824    1.07607875199209   -0.71315259581107
C         2.06943920017253    1.99941736369104   -1.14718911388153
N         2.57556928280134    2.96801951325129   -0.46854941816333
C         2.15896003818785    1.88395009344414   -2.71133947151188
C         3.51773408723598    2.45764623444403   -3.19974077680370
C         0.83721903334562    2.34621714979281   -3.37035867175101
C         0.63004900571898    0.92017917613180   -3.91210988986129
N         1.84440211025596    0.51174638757660   -3.22312085255131
C         1.98199273945662   -0.81230091439820   -2.77094634600395
N         1.32345820704547   -1.87304863165960   -3.11804492841401
C         3.17713675699115   -1.08336551019268   -1.87679340606940
C         3.16707434837665   -0.27443548233574   -0.62166870806672
N         4.28565955391144   -0.08577436648663    0.01291822180444
O         4.22378073229962    0.27178040010781    1.35293561773946
H        -0.17806579630206   -0.70188684097784    0.42648225129097
H         1.15796808708316   -2.01591409421460    0.49095483176826
H         0.56469684363057   -1.34598983191058   -1.02612918574325
H         2.01605023391481    0.30634337490960    1.04928089584271
H         2.30033221348825    3.02615825273434    0.52169248721264
H         4.21872550920892    1.61282719647006   -3.19907220003092
H         3.83417876454921    3.14918288069836   -2.40972894135259
H         3.53877943337104    3.02786872146207   -4.13229574933886
H         1.07312858494108    3.11240912495254   -4.11192261451892
H         0.14564223348386    2.66608828303114   -2.57997988768109
H         0.74100776515276    1.04122108324872   -4.99845191096455
H        -0.18881809500571    0.23693881830110   -3.68441061200522
H         0.65479515002793   -1.70817666145535   -3.86692059978326
H         4.09110027065472   -1.06084763597829   -2.48719387155355
H         3.16218312709339   -2.13150731620533   -1.56300387701655
H         5.15271858843530    0.35157945910938    1.64346942421334
