32
 energy: -49.288239935531 gnorm: 0.119553831021 xtb: 6.4.1 (79825abcba525fcdf90b791dcacef51065a7a4e7)
C         2.21452170505032   -0.70486207458437    1.50440276825864
C         2.32245897774853    0.22510645419505    0.29520472821986
O         1.07964617267974    0.88677379818445    0.01594649830096
C         0.96771491582112    1.65493543964875   -1.09637064809941
N        -0.14038115455277    2.27332086987219   -1.30763394347829
C         2.09200920973289    1.89960107114749   -2.16595657768012
C         3.60295679222558    2.12509086350796   -1.88289871622381
C         1.53977743843183    2.84728927202218   -3.25770909936932
C         1.62980269225638    1.70054267099807   -4.28087369583169
N         1.82615451034495    0.80398620714894   -3.15224215356180
C         1.71609821938864   -0.59748984509523   -3.16794912337515
N         1.42643448216329   -1.28833811409226   -4.22537735409793
C         1.91548134786371   -1.27366567677624   -1.82467427623393
C         2.85849303231028   -0.64553972769650   -0.85205215785737
N         4.11392709175831   -0.93773547111545   -1.01948396908647
O         4.98491324432667   -0.33114727613431   -0.12463487341514
H         3.12155569685747   -1.30527934030053    1.63691166683271
H         1.48887545251266   -1.50639408631766    1.33923713882346
H         1.97422601825349   -0.08548871492760    2.37550810934497
H         3.06939144965404    0.95857586948277    0.61952608158015
H        -0.80810101775159    2.20961389074832   -0.52673305671197
H         4.20090409164308    1.69738318306142   -2.69814946874518
H         3.81281307292100    1.68240063352968   -0.90184593229927
H         3.87581631766419    3.18020389049528   -1.79606814269153
H         2.23719758278205    3.65792546486816   -3.47928221319602
H         0.51714422810797    3.14382820020519   -2.99016355882262
H         2.49171379977572    1.72764430842782   -4.96166493909314
H         0.77342378886699    1.61398315467080   -4.95044840707058
H         1.24717068137837   -0.66230146805091   -5.00707450236914
H         2.31886636119028   -2.26577280002209   -2.07252317981371
H         0.96635185810117   -1.45727997445779   -1.31210455985987
H         5.85561716549040   -0.19788214324332   -0.54632007417119
