32
 energy: -49.289750066882 gnorm: 0.120145899960 xtb: 6.4.1 (79825abcba525fcdf90b791dcacef51065a7a4e7)
C         2.09014280148644   -1.04756907574243    1.25888380317879
C         2.37531075398246   -0.02730019625562    0.15598649959577
O         1.22190507075930    0.79915843055169   -0.06079438652055
C         0.96461334421915    1.76569400423162   -0.97701504385416
N        -0.16714042476799    2.37033735252873   -1.06893588058245
C         2.06091381281202    1.95993495694553   -2.08530594528469
C         3.40045908972408    2.42738032965127   -1.45202617684408
C         1.52086849565871    2.92751656656109   -3.16564538196490
C         1.56643703294521    1.78127281637024   -4.19231323279026
N         1.92271112792132    0.87646107027365   -3.11038848381702
C         1.73649295644108   -0.51574228360090   -3.17027853708043
N         1.22620085325800   -1.09773845685561   -4.20961164096219
C         2.10036703531384   -1.45130092798975   -2.03287782767701
C         2.98552353697717   -0.75650494258239   -1.05126510383577
N         4.26841319157138   -0.92283609577151   -1.17797153754856
O         5.12912526655187   -0.29537707177408   -0.28758346762828
H         3.03594250442357   -1.38981724772833    1.69373926528015
H         1.54816230155697   -1.92153425639688    0.88640865988674
H         1.44747950422377   -0.69738414844602    2.07407966323841
H         3.13682869109805    0.64025344399941    0.57495238016095
H        -0.83241147895736    1.88790920568799   -0.44894225230070
H         3.08496088124853    3.22189942929811   -0.76332529209940
H         3.95651873811828    2.88387236986042   -2.27960792445612
H         4.01302804653380    1.63806941414495   -1.00817606856341
H         2.03233501449340    3.87658948466424   -3.33966586921839
H         0.50072071955465    3.23131869930872   -2.89676359970541
H         2.38817312881236    1.85430886126395   -4.91792848985734
H         0.65347364227733    1.46301990504033   -4.69671446869802
H         1.07357581633830   -0.44160655497021   -4.97204481713843
H         2.77563959095536   -2.17263839263870   -2.51464990522120
H         1.25216075290765   -1.95006832886056   -1.55426954134526
H         6.02103554639382   -0.33542210350168   -0.68330530270868
