32
 energy: -49.288640510696 gnorm: 0.120786951139 xtb: 6.4.1 (79825abcba525fcdf90b791dcacef51065a7a4e7)
C         2.08610139290831   -0.32842751382083    1.60572422030045
C         2.49848622925964    0.25735411226744    0.25463190097097
O         1.35589782503114    1.08143258906284   -0.02061143572337
C         1.04536008556151    1.86185065358708   -1.08567682542644
N        -0.10353624635101    2.43721934053566   -1.02324530870702
C         1.93366942919635    1.91563578255263   -2.38025267206340
C         3.39040917241384    2.24100447056813   -1.94900503003131
C         1.42729074573653    2.80014383674812   -3.54482234534894
C         1.54951645397830    1.57685956846760   -4.47144771626186
N         1.74190702158905    0.74435955937401   -3.29411756792543
C         1.90272733239715   -0.63004580336534   -3.04584165264397
N         2.19559880122275   -1.48725417771514   -3.97252983183265
C         1.67292419397357   -1.24716282411126   -1.67919912214669
C         2.80304143533176   -0.81320928761996   -0.80494149677805
N         4.00620846052980   -1.27216855075408   -0.98178026913031
O         4.93249266591559   -0.57238770597559   -0.22044895830420
H         2.92513146845871   -0.86654172881129    2.06095140266851
H         1.21602159584451   -0.98548154898934    1.51890903208814
H         1.75732030369494    0.41149504322328    2.34369948757345
H         3.37894850831646    0.90059226479876    0.36463506338206
H        -0.70920077121424    2.23493299091390   -0.21580162638144
H         3.88506054764516    2.93543070376350   -2.64052570628555
H         4.03544688931553    1.35764564252679   -1.87101541278443
H         3.32678165907988    2.90248818215525   -1.08087703784448
H         2.12399598172042    3.59438038961882   -3.82124709918970
H         0.37600762958662    3.09164679939361   -3.42184080357394
H         2.45149512123462    1.47991447588399   -5.09123647730648
H         0.65592282019421    1.25548268201216   -5.00755870000460
H         2.12164234293897   -1.04623553963559   -4.88639023042927
H         1.71560608596114   -2.32202513056331   -1.90563758036501
H         0.71541138474675   -1.00737709423631   -1.20701193593309
H         5.77274329015746   -1.06644403884320   -0.28037017209619
