32
 energy: -49.283292364891 gnorm: 0.137975249326 xtb: 6.4.1 (79825abcba525fcdf90b791dcacef51065a7a4e7)
C         2.09736095926782   -1.05259565258313    1.28136501789516
C         2.45435421962050    0.07027933404898    0.30650122999897
O         1.21472783876181    0.71907285668338   -0.01406998461076
C         1.01321056658009    1.67238171056851   -0.95770304069723
N         0.00430675230879    2.43825201240480   -0.73305803789267
C         1.94181323232855    1.94152684097190   -2.19591583596485
C         3.40474280784638    2.29761958639887   -1.81255567474769
C         1.33207596901501    2.91571082338238   -3.23234356753796
C         1.45015139197298    1.84576337967165   -4.33292012805301
N         1.99890852973023    0.95529575865825   -3.32192571357699
C         1.86254773552282   -0.44330103872084   -3.27918289018424
N         1.64024660739038   -1.27031787686641   -4.25178570585884
C         1.98492152432867   -1.21530610935202   -1.97903384566707
C         2.92224333604843   -0.70851869622518   -0.93289744018853
N         4.18767182617501   -0.97572685072395   -1.06257777656537
O         5.02372734328672   -0.37531065172774   -0.13100245275279
H         2.97251536098246   -1.29787357211049    1.89350363068302
H         1.72775552114669   -1.85955133157226    0.64221707706376
H         1.38799444106918   -0.81339717122162    2.08122320584279
H         3.19229166436737    0.78486241522988    0.68845566262673
H        -0.52935088514483    2.09873222496552    0.07913062784474
H         3.91385375577356    1.40237051897660   -1.43249808164120
H         3.45468826313024    3.16133117508545   -1.13877039586692
H         4.08788599979465    2.52787195198539   -2.63447695728008
H         1.92113557055344    3.83280465918665   -3.29993216671418
H         0.30987018154452    3.12381619468975   -2.89017092662513
H         2.16462455396147    2.08497420214032   -5.13255020279954
H         0.44841422944969    1.57985661353524   -4.67207189572844
H         1.34454387188362   -0.76261131829240   -5.08238896133633
H         2.22999111498665   -2.27519341531880   -2.13716317144481
H         1.00933924332977   -1.06544703536295   -1.50673076311611
H         5.88208719253212   -0.59930381339895   -0.53935127041656
