32
 energy: -49.286839193514 gnorm: 0.132248108485 xtb: 6.4.1 (79825abcba525fcdf90b791dcacef51065a7a4e7)
C         2.15161796659646   -0.44309641302789    1.61229688967298
C         2.39216943434597    0.31766143128491    0.30767651740706
O         1.19385665914270    1.04233509643041   -0.00739026890739
C         1.08628420099394    1.75469406962752   -1.15666099433762
N        -0.01835162572667    2.40934557358885   -1.23489599062639
C         2.08719218440161    1.83424803548630   -2.36486931329670
C         3.43622496325704    2.36290284449214   -1.80400868584112
C         1.52310311373043    2.70052695706792   -3.51654668037606
C         1.79596131114037    1.48995881622415   -4.42762916020314
N         2.05783249000043    0.64383832658922   -3.27364463476975
C         1.78648821969644   -0.71863929868694   -3.05795688045791
N         1.34869691360177   -1.58527661262470   -3.91621640363836
C         1.71039246745399   -1.31493180210462   -1.66511826776637
C         2.75347412245709   -0.66735210889940   -0.81516047458284
N         4.00812983415057   -0.89026088284307   -1.07143605730126
O         5.04482299028446   -0.40874066520915   -0.28357401430768
H         3.07546804099960   -0.78200228800305    2.09439025331629
H         1.41615578807174   -1.24509455003426    1.50188807078690
H         1.75077466262365    0.19078381215975    2.41086460541429
H         3.22300786248618    1.01724926593932    0.45380732968912
H        -0.60324171636764    2.20237900602376   -0.41344421880259
H         4.20275847409244    1.57729126335549   -1.78531539258161
H         3.40848425055438    2.88504825074327   -0.84012410676580
H         3.71570669422189    3.15955875393692   -2.49861987075086
H         2.16631533469822    3.55182138081364   -3.74934783806066
H         0.46776750088087    2.90328719362395   -3.29193665413499
H         2.73009163886933    1.56440178254517   -5.00118016167845
H         0.94365436360602    1.24137974275636   -5.06086606800986
H         1.42318204733545   -1.36610491554569   -4.90693510709921
H         1.73815380379210   -2.41336758441848   -1.69818224758297
H         0.71959225753594   -1.02154188254607   -1.30522102252966
H         5.88233610582480   -0.68289621156270   -0.70442296611650
