32
 energy: -49.293156886382 gnorm: 0.127519887930 xtb: 6.4.1 (79825abcba525fcdf90b791dcacef51065a7a4e7)
C         2.06466038662661   -1.25853573372646    1.17062258218133
C         2.43492090456247   -0.07880723585685    0.27073390644104
O         1.25521361212811    0.72389330165975    0.11473700795676
C         1.02415788050056    1.57555233497395   -0.91537970677806
N        -0.08940226150028    2.21935517759897   -0.93566042452183
C         1.96662265069085    1.95101765131837   -2.11483745142332
C         3.42159378652758    2.30079984200379   -1.69693627478478
C         1.29693430300779    2.93773315313547   -3.10119764654022
C         1.54644430405204    1.92830658684552   -4.23645130506146
N         1.95257084508270    0.95549853362639   -3.23401307664675
C         1.85855964913917   -0.44338501488389   -3.33784422293336
N         1.56155813276366   -1.08335715715959   -4.42483852516703
C         1.99058350735793   -1.15927060123700   -2.00689260330830
C         3.00057357167808   -0.60081142674871   -1.05934290293710
N         4.27861176121636   -0.82663281134830   -1.13110303544921
O         5.06442681752869   -0.35766718364659   -0.08712652598633
H         2.49819702457059   -2.23795779615070    0.93921695135568
H         0.97983437641427   -1.38543820433413    1.11279503964889
H         2.25502407201921   -1.03943155400240    2.22700552094712
H         3.12382775677876    0.51758514950740    0.87966190432556
H        -0.61487626861545    2.09863616828962   -0.05872338229902
H         3.34143332435687    3.32019282863819   -1.29753564425130
H         4.01467044832384    2.30011714900475   -2.61929112309909
H         3.92544077926195    1.64060383960322   -0.98592656374681
H         1.88817547290784    3.85330436051899   -3.17036250970538
H         0.28523447175946    3.22010711776003   -2.78178721431916
H         2.28731746703843    2.23340293698204   -4.98819936197238
H         0.56433584679561    1.65992134363024   -4.62714301655871
H         1.44027466035602   -0.45334089780566   -5.21444453627090
H         2.24017210857331   -2.18784032982142   -2.30383524159600
H         0.99694136344881   -1.24516012697603   -1.55679595635563
H         5.98913802152184   -0.35893039626211   -0.40115027642043
