32
 energy: -49.294242991530 gnorm: 0.129012242276 xtb: 6.4.1 (79825abcba525fcdf90b791dcacef51065a7a4e7)
C         2.12218229658680   -1.04790303348305    1.39034516252468
C         2.45603716405307    0.00888880391482    0.33659768294049
O         1.27425784068018    0.79520685201633    0.12335123796652
C         1.06627100704464    1.56461776053785   -0.97419085141200
N        -0.09441825200034    2.11772267768379   -1.01644004869440
C         2.00939281644483    1.99342116831305   -2.15510651980848
C         3.36374772054551    2.51456669363033   -1.60007488745702
C         1.41423346409198    2.90773507382338   -3.25274571309701
C         1.77507627483993    1.77976562162332   -4.23634902914434
N         2.13683615079134    0.88155118323224   -3.15075364986107
C         1.73068577613674   -0.46415370426878   -3.17554213871309
N         1.43628052029031   -1.08995921270626   -4.27145449733735
C         1.81744033321330   -1.25812963486159   -1.88580162432736
C         2.85415985430527   -0.69888223620080   -0.96805327789200
N         4.09242049733767   -0.83094012744104   -1.34060896496893
O         5.00244642276004   -0.36328535395373   -0.40227381670284
H         2.97623578220643   -1.72885284069991    1.30276566347045
H         1.20307008599738   -1.61574929662727    1.21981921785976
H         2.01024072074289   -0.49895294224646    2.33178701998779
H         3.31540478394543    0.64619057101241    0.57409208538762
H        -0.62534074744303    1.78005913578630   -0.20168902791022
H         3.85439524123888    1.73583241139010   -1.00178854660223
H         3.23278303580170    3.44856570189279   -1.04063502524392
H         4.08139639865522    2.67083389873068   -2.40989974603461
H         1.96765639134593    3.82725641841928   -3.45479542462047
H         0.33974010566257    3.10665817262448   -3.14697121096658
H         2.56893825353078    1.92096961158676   -4.98263755947972
H         0.90113615201503    1.40253271284825   -4.76845021654705
H         1.46178761807751   -0.51984916477348   -5.11373220940177
H         1.94370344571279   -2.33014025071134   -2.09383035759124
H         0.80820387788478   -1.10189090204679   -1.49296582663846
H         5.79797959826237   -0.85981489285839   -0.67483336564408
