32
 energy: -49.286583908193 gnorm: 0.132041653726 xtb: 6.4.1 (79825abcba525fcdf90b791dcacef51065a7a4e7)
C         1.75750925606059   -1.28321368093529    1.03812548548679
C         2.32049585450423   -0.12748539219885    0.20988035371652
O         1.18222313207231    0.66885272097700   -0.15144121194542
C         1.05032098128490    1.68312129955561   -1.04234601372657
N         0.00923685946254    2.43099421051125   -0.93399688162012
C         2.12569354949789    1.89430815631649   -2.16790669700876
C         3.57810782279028    2.18506385477713   -1.69898895685677
C         1.55606806982642    2.93040438811441   -3.16641948873236
C         1.41576656979757    1.83664315487605   -4.24066338645663
N         1.98744557922018    0.90318920321521   -3.28252795585402
C         1.67726211583476   -0.46170167272424   -3.15079604605921
N         0.96633445883369   -1.03648383849955   -4.06923939079116
C         2.34146546761164   -1.30228629161768   -2.07673550088176
C         3.11967551876220   -0.59484754867307   -1.01667582654695
N         4.41872517943103   -0.55744204320050   -1.04111362997748
O         5.07849370377555   -0.15113637224552    0.11081614306195
H         2.48789131895511   -1.63022950101747    1.77764710115067
H         1.32771900063866   -2.15450276567251    0.53569997881618
H         0.97251967763051   -0.77286496470724    1.60691845215874
H         2.88392695204957    0.42316499241365    0.97171981573712
H        -0.46235554022798    2.03048487347121   -0.11125301533244
H         4.26634573894904    1.69629053709398   -2.40079935174629
H         3.69284853480389    1.85349094985598   -0.66006026536519
H         3.76884783989603    3.26103752174692   -1.73296360657261
H         2.18286282248715    3.78538201212285   -3.42864482878765
H         0.62500937326460    3.45611257583892   -2.91731062757391
H         2.07890096808813    1.88305875438260   -5.11542068637244
H         0.39866681144141    1.49367998711216   -4.43325627469405
H         0.68931776922858   -0.47160309271793   -4.86878883316015
H         3.04388397628501   -1.94662947467374   -2.62432583781641
H         1.58663847693757   -1.91004180135220   -1.56864283721882
H         6.02108101993322   -0.15283875409688   -0.14458466887363
