32
 energy: -49.286525426143 gnorm: 0.120079869465 xtb: 6.4.1 (79825abcba525fcdf90b791dcacef51065a7a4e7)
C         0.65597022125885   -0.75591683791358    0.38629775955331
C         1.93010828746903    0.03984058141561    0.09995168080866
O         1.49174348219431    1.02025722040924   -0.85240957657011
C         2.15460502549044    2.06249214203184   -1.41295505679087
N         2.64702186554092    3.13716190017770   -0.90549064613809
C         2.12563332403336    1.96557711247882   -2.98065434640242
C         3.24545827943743    2.76269616539313   -3.70489412357054
C         0.67692348950055    2.33765618284669   -3.37788649308699
C         0.47264330861253    0.85711984347504   -3.74704750912413
N         1.87549729912490    0.57681175973175   -3.48322039113941
C         2.36263515407186   -0.53990812476109   -2.78170230913865
N         1.85007186922337   -1.70685616982726   -3.01588599450105
C         3.56107292359493   -0.40675323797263   -1.86117455312471
C         3.22788991062243   -0.59942253757972   -0.41837359707895
N         4.15208418536354   -1.02311356352279    0.39148889377385
O         3.66726350977156   -1.19482979359057    1.68097850606534
H        -0.07799592777069   -0.03578481660892    0.76507700583067
H         0.81539843503620   -1.54574715395060    1.12592363562709
H         0.18288349097936   -1.24992081233119   -0.46947025345927
H         2.19709245040045    0.53389958048807    1.04106537094338
H         2.48256378098308    3.27759030502096    0.10096252030268
H         4.24857368169843    2.69585197775827   -3.26398602273229
H         2.98815535123185    3.82403664165997   -3.80404274516950
H         3.20002144177938    2.38973876430701   -4.73158475031276
H         0.64834584738084    3.12416348943273   -4.13499289713521
H        -0.01095549750723    2.63956590414350   -2.57728194420249
H         0.24816401352383    0.65874229429659   -4.80409877014940
H        -0.15035951363741    0.25025394498820   -3.08918054755635
H         1.07683936986013   -1.66060753894496   -3.67549222931080
H         3.91154646969335    0.63475498959947   -1.89039750424679
H         4.39000900701319   -1.06629562261278   -2.13532324840785
H         4.40466169042356   -1.10175319104847    2.31444830848479
