32
 energy: -49.290291453406 gnorm: 0.137994574825 xtb: 6.4.1 (79825abcba525fcdf90b791dcacef51065a7a4e7)
C         2.19739924594085   -0.84496111038802    1.43178991422714
C         2.46438116463248   -0.02886872312425    0.16633913117871
O         1.20388498068773    0.61241403630406   -0.07917723930701
C         0.88159405182248    1.64422648827983   -0.89853183277044
N        -0.14432563633746    2.37976850379631   -0.65078935931046
C         1.83402610408017    1.98267222320421   -2.10112928035424
C         3.30064998868986    2.38132496508502   -1.77860740716258
C         1.16979368189628    2.95026723289671   -3.10986690273805
C         1.57115374857159    1.95008470756786   -4.20920448290567
N         1.84719313039552    0.95174408081263   -3.18778638313288
C         1.92928742102912   -0.44973823353952   -3.26263330704251
N         2.04255642073877   -1.02058047253666   -4.42049346729255
C         1.92244986506590   -1.29533524487780   -2.00315974337668
C         2.97229223188085   -0.77260292306049   -1.07882810512630
N         4.19957893640766   -1.18613403378074   -1.18966950541292
O         5.02199228733767   -0.58273592435467   -0.24793279771573
H         3.17484155290242   -1.20643106261859    1.77048767632196
H         1.68786078582780   -1.75808752716577    1.11106192900327
H         1.60132243596508   -0.42495012537639    2.24939195363862
H         3.28786257413042    0.67618541576010    0.32710876504003
H        -0.66799253668661    2.07463692811413    0.18130575805376
H         3.31565664466901    3.18691884109273   -1.03301909767394
H         3.86111269232719    2.71784783560743   -2.65901229753784
H         3.85653182683720    1.50930554994506   -1.42387808685146
H         1.50605682994701    3.98658383745716   -3.18467012464841
H         0.09298542934384    2.94176157862637   -2.89607664860074
H         2.47550006398033    2.25310716087734   -4.75458243237427
H         0.83982477144196    1.65089565475006   -4.96077052078565
H         1.95549751709647   -0.46880146966780   -5.27082781247231
H         2.04173145212735   -2.31610991661059   -2.39330851712245
H         0.93139854152773   -1.11789849158454   -1.57464813278300
H         5.87080073540998   -1.02697382329469   -0.43735357689876
