32
 energy: -49.287687496646 gnorm: 0.124926906367 xtb: 6.4.1 (79825abcba525fcdf90b791dcacef51065a7a4e7)
C         0.84964781599949   -0.58503178888385    0.65739573670935
C         1.97649567656825    0.34538435439316    0.20662807334778
O         1.37559387899992    1.22762387966049   -0.75302963256256
C         2.09803116995415    2.11504399729951   -1.48132916064451
N         2.98051955360793    2.91804848540833   -1.00038464942027
C         1.89344590463287    2.10062431349524   -3.03884316873528
C         3.00144360915995    2.84655114045210   -3.83248303267150
C         0.44050827840965    2.27317861135966   -3.54301937044754
C         0.41931519453646    0.73912843167742   -3.67045171122146
N         1.84793799183019    0.65036054960747   -3.41096401851676
C         2.43566665523762   -0.43885539368743   -2.74412230929110
N         2.27671063136579   -1.64395079204142   -3.19335380849756
C         3.57495718920563   -0.30472843889750   -1.75145835593147
C         3.15555452028777   -0.48176105803832   -0.32928823606790
N         3.90213771867050   -1.28507003068882    0.36844711709851
O         3.59747312473489   -1.46563877982787    1.71079409854544
H        -0.02590377938219    0.00536576546034    0.94998809487918
H         1.18973094758005   -1.24262540890815    1.46251052505773
H         0.68296730965340   -1.23226402317325   -0.21064684921674
H         2.13081333442019    1.03985703527521    1.04027282724721
H         3.05214265873447    2.89956008364073    0.02637865824868
H         4.01149204455463    2.54951137474698   -3.52155192829310
H         2.95877028204345    3.93514016107778   -3.70745590409811
H         2.91531693238881    2.62163378938073   -4.89890215624180
H         0.47957249638103    2.67719800260309   -4.55685508135424
H        -0.32748671591647    2.68740556487373   -2.87676541340032
H         0.13179905018658    0.37953874055240   -4.66801458954795
H        -0.21644664338301    0.15377382363157   -3.00533928343906
H         1.80932057193780   -1.72749308081026   -4.09317325632930
H         4.01755548045409    0.69579372936000   -1.85863680250186
H         4.28374639607517   -1.12689180310596   -1.88913180162090
H         4.22041574519920   -2.14735967238611    2.02844553923564
