32
 energy: -49.290254797242 gnorm: 0.124297052973 xtb: 6.4.1 (79825abcba525fcdf90b791dcacef51065a7a4e7)
C         2.10423954733213   -1.00342671984645    1.34183360188530
C         2.37572761020187    0.03872968418589    0.25608221973325
O         1.12303122369690    0.60208490295125   -0.16075725731807
C         1.06573822782892    1.65984956151578   -1.00793006149149
N        -0.08334698674055    2.23663490165042   -1.05072550329959
C         2.03997629344938    2.01862957420168   -2.18693389444711
C         3.44687813139165    2.36116252043001   -1.62370357731462
C         1.32282802495859    2.93962403019493   -3.20303623474843
C         1.34355748446395    1.79373970038831   -4.23090660300474
N         2.11902114109955    1.00447622183877   -3.28650415501793
C         1.83629433441618   -0.37162902943036   -3.23270719426456
N         1.39838061612094   -1.03218920921645   -4.25799871290900
C         2.09858034707669   -1.17966957038721   -1.97587338579857
C         3.04154118639160   -0.62215592679332   -0.96107763761410
N         4.28022119429933   -0.99324980555761   -1.09331831711987
O         5.18798912315084   -0.51243783532269   -0.15945630844588
H         3.05587391456620   -1.27745162565212    1.81095250286744
H         1.75094161198987   -1.94115921268117    0.90350259420885
H         1.32319979401475   -0.65621818509081    2.02711677169825
H         3.04525709303017    0.79517309739774    0.68104511981628
H        -0.59406588561391    1.85715297035165   -0.24148248430157
H         3.24562946777437    2.94002831591319   -0.71292259819128
H         4.13162206932230    2.91950333005691   -2.27321118386773
H         3.94830025593957    1.41315460220240   -1.41130721882485
H         2.01548882910376    3.73954028245981   -3.47317607665543
H         0.39489989886535    3.42466183925923   -2.87291149959548
H         1.85738526149964    1.96726435774643   -5.18640238296193
H         0.31848533187294    1.44470484876817   -4.35978418437578
H         0.91424797760574   -0.45997653527291   -4.94596387514203
H         2.43821163591854   -2.18242413251924   -2.27177701504730
H         1.11953467492349   -1.26926442414858   -1.49552866264724
H         6.03518906815843   -0.94844689517049   -0.37358635195532
