32
 energy: -49.294131068046 gnorm: 0.122186362488 xtb: 6.4.1 (79825abcba525fcdf90b791dcacef51065a7a4e7)
C         2.13455389533066   -0.97486090855007    1.26401796866483
C         2.36116495234462    0.03835118435928    0.14120877417609
O         1.10751561261797    0.67163162938250   -0.15491904839924
C         0.95880686783092    1.63153533622106   -1.10166130416443
N        -0.14696824122795    2.27367981199483   -1.24245007531657
C         2.06452509843317    1.99066512923072   -2.15822456768631
C         3.47803417682755    2.41782220816667   -1.67504874449792
C         1.48028217861871    2.98358409373651   -3.19155343199742
C         1.31634771175416    1.84009652777519   -4.20917800849791
N         2.04372783281352    0.99372982424848   -3.27603372903454
C         1.85104376704633   -0.39848068687899   -3.24261320025972
N         1.20414045444797   -1.02311486905192   -4.17571507233212
C         2.21649368868994   -1.27742757603177   -2.06140475836724
C         3.08779274459475   -0.68803491463735   -1.00156456412286
N         4.31037612007508   -1.09118583179782   -0.82188251353728
O         5.11141002885481   -0.64613797829556    0.22099719645622
H         3.08014142506805   -1.03334156168976    1.81466703954533
H         1.87957403179404   -1.92996842350871    0.79598951097698
H         1.31852206463595   -0.62113178237479    1.90367228493132
H         3.04350960857507    0.87218312762780    0.34170789877071
H        -0.82149505375163    2.06403177117641   -0.49360038225472
H         3.91624351541357    3.14783964201378   -2.36798145230697
H         4.08958972683775    1.52679134092207   -1.48919219484779
H         3.36010345509379    2.89245788674248   -0.69726109806468
H         2.16189886996178    3.75304289009206   -3.56027064149820
H         0.61635339272889    3.59010176197366   -2.88979525777891
H         1.82890814602189    1.93990290712387   -5.17583330340358
H         0.27023779720891    1.54678046703693   -4.30313229757681
H         0.89640699554448   -0.43059425803293   -4.94339160695863
H         2.70569887826728   -2.12769245585584   -2.55754284194505
H         1.30389722172547   -1.62189033827384   -1.56562073193563
H         5.95819686497529   -1.11158779411928    0.07953396843847
