32
 energy: -49.281316755625 gnorm: 0.132384733297 xtb: 6.4.1 (79825abcba525fcdf90b791dcacef51065a7a4e7)
C         1.89443163529616   -0.63560836829750    1.29884132351136
C         2.44179592109389    0.32538050080077    0.24264789303655
O         1.28561402232934    1.14473098663343    0.01399814499157
C         1.08169271949017    1.84511897914793   -1.12955907173465
N         0.08006812131862    2.63700277054378   -1.28633230866738
C         2.04370507761100    1.85618734692588   -2.37146192986470
C         3.50240868957700    2.22885569406397   -1.98775361246583
C         1.46606369428948    2.72835476337992   -3.51192273544182
C         1.20893495202152    1.45813974535682   -4.34284795548053
N         1.75324714823619    0.67438379805896   -3.24483724033222
C         1.72116683963905   -0.71585930463336   -3.03822363251550
N         1.54722061201745   -1.55328226924085   -4.01177197210221
C         2.06736635239495   -1.33887456160220   -1.69906247752423
C         3.01814337119510   -0.47940762291314   -0.93280749231659
N         4.22532540850213   -0.94437602621023   -0.80614899930183
O         5.11441546068384   -0.42600444163023    0.12558637257605
H         2.61083388408788   -1.38279761315648    1.65834961969880
H         0.95286513773623   -1.16335465006050    1.12211518586649
H         1.80709969368430   -0.02176772141494    2.20203714220346
H         3.19015300943853    0.91083482965223    0.78879324498789
H        -0.59806768073574    2.77329983652233   -0.52392196555029
H         3.96754347284344    1.58213240761650   -1.23243431407285
H         3.42301127248673    3.29452810234156   -1.74175110364139
H         4.16534235186997    2.11713338722093   -2.84989771744995
H         2.24756017347157    3.39622354503769   -3.88048084949455
H         0.62775173665809    3.29137333289856   -3.08118176130864
H         1.84295672458847    1.37319733091643   -5.23610220336386
H         0.15312162218080    1.30588729219026   -4.56931003561135
H         1.49775574457560   -1.06175592534993   -4.90118914369012
H         2.63878087148865   -2.24930813139700   -1.92932593398628
H         1.18266731874053   -1.60738837254057   -1.11383032390125
H         6.00400759089417   -0.81206925872584    0.01033394621841
