32
 energy: -49.295900261823 gnorm: 0.118632420833 xtb: 6.4.1 (79825abcba525fcdf90b791dcacef51065a7a4e7)
C         2.16086315566455   -0.97227925495475    1.34841398555058
C         2.46526038289607    0.02019049137588    0.22547233643293
O         1.25545693778388    0.77398338405464    0.05652148364218
C         0.93570442638713    1.59550216717308   -0.97435947761120
N        -0.20777124025615    2.18287591805496   -1.02299168082917
C         1.94330413949111    1.96640268386815   -2.12113260514087
C         3.34106408283588    2.35286277581872   -1.56359718478651
C         1.36636729536231    2.99254935089286   -3.12570380849739
C         1.50228009619892    1.94156483149635   -4.24237625570323
N         1.93226818558630    0.97492849523763   -3.24392689466670
C         1.86727901278406   -0.42721970168040   -3.32299054348020
N         1.86077368370032   -1.15731002551420   -4.39362431573926
C         1.89288847315853   -1.13475870891742   -1.98131717576806
C         2.96351333129728   -0.71418653297121   -1.02911525796716
N         4.21330566708754   -1.02161472118177   -1.21086636507241
O         5.05400121599750   -0.70029360016477   -0.15383999299015
H         3.13658805539182   -1.29642407410170    1.72744066204458
H         1.62408174283314   -1.89230598747903    1.09999446467069
H         1.60317015249429   -0.30009312994643    2.00972648476601
H         3.34695792208226    0.54522355177661    0.61020545925876
H        -0.78623411680304    1.94596285398554   -0.20508735247466
H         4.02636319289849    1.49888997204506   -1.64236395541580
H         3.08183969853021    2.71387187547524   -0.56112323638146
H         3.69418416068439    3.17505701010992   -2.19173588876574
H         1.99953580660956    3.86144065092334   -3.31739647726486
H         0.31754124832414    3.18122371102071   -2.86177097468403
H         2.22857580306833    2.14572028800067   -5.04107336293148
H         0.55208697437261    1.74759368130654   -4.74109049894088
H         1.89337462885716   -0.56989868070216   -5.22368028712834
H         1.84983580044782   -2.21536560390760   -2.17844731849671
H         0.94204977280175   -0.86943232371867   -1.50930403625971
H         5.91245230417772   -0.96950868683925   -0.53369297802781
