32
 energy: -49.293366599888 gnorm: 0.131335385346 xtb: 6.4.1 (79825abcba525fcdf90b791dcacef51065a7a4e7)
C         2.08520832099072   -1.02282969379055    1.31907842050067
C         2.46870835726980    0.04582165156010    0.29459618644056
O         1.30414464858655    0.87679037928254    0.17774225837805
C         0.92805612372921    1.62290195951953   -0.89077318279844
N        -0.24487534436150    2.13719645357499   -1.01177953815689
C         1.92016635442124    1.89610167949293   -2.07778292839548
C         3.35353841760793    2.35111634624983   -1.68748026957104
C         1.43511185726556    2.88381283568598   -3.16596728983759
C         1.77507627505134    1.84493843901965   -4.25001631349694
N         1.95844191518290    0.87957871476883   -3.17734006797155
C         1.89361068339997   -0.52468458505999   -3.19566264774047
N         1.94369895879987   -1.23397289322160   -4.27905183993167
C         1.71718718005828   -1.21841732224282   -1.85814092284177
C         2.82135806071189   -0.64726792023556   -1.03085494473312
N         4.06757472002375   -0.93663296049637   -1.26050330387108
O         4.98780799818576   -0.31983535738695   -0.42381192954011
H         2.80266717719054   -1.85094811939330    1.30349550593801
H         1.09896017984618   -1.44622901373114    1.10849979877838
H         2.01581612226995   -0.49923394180567    2.27888157935306
H         3.32107824654484    0.69576314878723    0.52287555144399
H        -0.81959433841867    1.85370116053864   -0.20614743583349
H         3.81238712709526    2.68829857496709   -2.62602948476001
H         3.93810043558719    1.59255179474383   -1.15330247087954
H         3.36137361166446    3.24142593761680   -1.05301765561437
H         2.01085169257125    3.80962892427225   -3.10265261162940
H         0.37547632060665    3.17041673419572   -3.18400500677574
H         2.75020006239000    1.99530836557050   -4.73336345549656
H         0.91533781067388    1.62964228593173   -4.88539416285006
H         2.09568418766886   -0.64511467326714   -5.09468307417314
H         1.61466391259745   -2.28122510037590   -2.11958632535050
H         0.73638277321999   -0.90303708854991   -1.48956698004336
H         5.84285398383108   -0.64882574642332   -0.76199089157406
