32
 energy: -49.290675611434 gnorm: 0.126439047683 xtb: 6.4.1 (79825abcba525fcdf90b791dcacef51065a7a4e7)
C         2.15761555695186   -0.54006508129304    1.63977076674252
C         2.34317354064734    0.29250700541204    0.37050178310336
O         1.13959798790771    0.94639573826693   -0.05869268353863
C         1.02307909517073    1.77930882217608   -1.12289634333424
N         0.04974243651512    2.61784818339147   -1.18905578536792
C         1.99616607871650    1.89153264160029   -2.35107403121842
C         3.36464728633910    2.45515423825710   -1.87829517342143
C         1.44174273388064    2.66454971254284   -3.57175242309368
C         1.52112545996667    1.36291399432213   -4.38994612843229
N         2.14934241953011    0.70621249642653   -3.25404855735187
C         1.97766131388005   -0.68270138434740   -3.12011558159883
N         1.70960467454317   -1.46432174378307   -4.11838715016279
C         1.80328539100966   -1.17994818483473   -1.69754981421816
C         2.83218169157923   -0.56990682846941   -0.80366560197968
N         4.03669599943142   -1.01166467287165   -1.01228422053511
O         5.00890230767584   -0.68459135875446   -0.07678490990613
H         3.12952035226082   -0.98887917434887    1.87373046360277
H         1.43081591116670   -1.33495649892748    1.44949297022284
H         1.76588239646887    0.04972792984622    2.47576073072808
H         3.09339786698038    1.08571516702586    0.46565486226754
H        -0.50965977996782    2.61506539519159   -0.32489376359899
H         4.01614611420678    2.82436635230988   -2.68100327871248
H         3.99268355620965    1.66138195057593   -1.45642451265996
H         3.15604154161414    3.27059846828578   -1.18059199934629
H         2.02912913882740    3.50739400791255   -3.94217276540699
H         0.44017676254590    3.10285509190605   -3.47150962110213
H         2.25195452207090    1.38271322592063   -5.21006736923892
H         0.52011340465131    1.05375735624168   -4.69260883078162
H         1.87330943155994   -0.88586933789847   -4.93918029956616
H         1.79130063904509   -2.27555129574895   -1.60846966346518
H         0.77680512015771   -0.95829732746683   -1.39014475826824
H         5.72799459781172   -1.26021367897855   -0.40123605676347
