32
 energy: -49.290722845641 gnorm: 0.112883483986 xtb: 6.4.1 (79825abcba525fcdf90b791dcacef51065a7a4e7)
C         1.10683457668465   -0.80767940790626    0.73471561610547
C         2.06492304985989    0.25573849359671    0.19632852236205
O         1.35188577928290    0.93491015382844   -0.84802592663243
C         1.90636132132950    2.03033030020397   -1.42462103593273
N         2.25335764151085    3.02746370419667   -0.68961890871138
C         2.04916050967601    2.00866729851842   -2.98892665653920
C         3.32407863661583    2.82001850893721   -3.34979085904974
C         0.87238581645794    2.36888400305279   -3.92724517126156
C         0.71847283937124    0.88312199380305   -4.29983092726723
N         1.84569423356010    0.59102942305857   -3.42791892115167
C         2.02390695152650   -0.57338104261926   -2.66053197449905
N         1.29493637732531   -1.64059064514677   -2.75538151478344
C         3.33564391551312   -0.47920199525969   -1.90433679208437
C         3.27498374702113   -0.47009019028359   -0.41234337732825
N         4.16009505807541   -1.14794120533553    0.25595476377737
O         3.92805306646064   -1.10234016979455    1.62394529016578
H         0.09160686244062   -0.43737113441193    0.91624972439769
H         1.51532891539644   -1.17950430950965    1.67873593001217
H         1.01033829331105   -1.62534413028419    0.01201044850999
H         2.43607106350692    1.00906586708914    0.90047116533929
H         2.01761813274512    2.89033143239660    0.30302211888100
H         4.17733875853948    2.53387771707245   -2.72115803268607
H         3.06084518868168    3.85445567515307   -3.09854045836085
H         3.71126683144621    2.69187272809288   -4.36414746482694
H         1.15563521681433    2.96774396447811   -4.79543700074707
H         0.04218875728517    2.85465058276921   -3.39800203582236
H         0.73322646038220    0.58632688827172   -5.35756291737992
H        -0.22380832792218    0.49014373854996   -3.91657909608385
H         0.50922495195059   -1.52065844899892   -3.39050484538865
H         3.74909781077266    0.49828641627416   -2.19068862664427
H         3.94552874747756   -1.27829685842360   -2.33651338669340
H         4.74628282205993   -1.39617329292509    2.06876602428184
