32
 energy: -49.290121226593 gnorm: 0.115470564585 xtb: 6.4.1 (79825abcba525fcdf90b791dcacef51065a7a4e7)
C         2.24235359389887   -0.81616176657308    1.51775894481732
C         2.40002725767373   -0.08876771834376    0.18183652551339
O         1.18072900396412    0.64423051688089   -0.00894563870698
C         0.93980187421501    1.64967213804637   -0.88694996259335
N        -0.18084118996208    2.27673288817733   -0.96352378945397
C         1.87863575371023    2.01239636650074   -2.09315685164553
C         3.35670412330821    2.29525557951358   -1.70684796807642
C         1.32561763683197    3.06683092962746   -3.08175946257060
C         1.33647234025518    2.00047470401333   -4.19205882675148
N         1.63448353896485    1.00473856845870   -3.17427910827731
C         1.97830200428753   -0.34989115451343   -3.32679596107497
N         2.22939358760580   -0.91869977153525   -4.46378349338669
C         1.93684605102347   -1.25042080169797   -2.10668020429668
C         2.89329596397020   -0.93052890343562   -1.00546280726370
N         4.12724064456019   -1.29048727064835   -1.19869046101696
O         5.03234399650586   -0.91660326487002   -0.21465809978225
H         3.20159749890878   -0.73778746696009    2.04166615121550
H         1.96828679803262   -1.85353075130803    1.30551212721279
H         1.51395911676164   -0.30355630337906    2.15562022397012
H         3.19460713212991    0.64627990428865    0.35335228000590
H        -0.87177715177833    2.09744614266376   -0.22178370985802
H         3.74685775169702    3.23859062038646   -2.11059017172990
H         4.07078081796698    1.49982671486124   -1.95152377565712
H         3.34300733535761    2.52324652313816   -0.63769507815756
H         1.95089616827277    3.95384591577214   -3.20362704328422
H         0.41981824674437    3.44284010585728   -2.58836388145160
H         2.07793569309829    2.26895130897021   -4.95707802682305
H         0.38318977247210    1.78268611033052   -4.67478871885398
H         2.17391917443176   -0.29505550763325   -5.26571755708348
H         2.19897569662653   -2.24155779042997   -2.50336724235349
H         0.93896466660358   -1.18175632538928   -1.66305124777111
H         5.90774734093634   -0.98599714146659   -0.64192475767299
