32
 energy: -49.285476757970 gnorm: 0.127695682559 xtb: 6.4.1 (79825abcba525fcdf90b791dcacef51065a7a4e7)
C         2.31243597131800   -0.74967092404047    1.42696140563659
C         2.55369676231461    0.13313420996621    0.20176749163676
O         1.34533360249798    0.90541070828738    0.13996168292792
C         0.88067662651514    1.55293155608997   -0.95760879554318
N        -0.31302777317268    2.03191420305109   -0.98116760403837
C         1.86128736763198    1.99374033797983   -2.10303584228628
C         3.16534142005497    2.52998583618053   -1.45049176255912
C         1.23174585851704    2.94905420349840   -3.14517272677183
C         1.79884506433225    1.97379018544410   -4.19267293495777
N         2.18366444137491    1.00333997988382   -3.17959981989971
C         1.90578210274295   -0.36817206973853   -3.31461946269683
N         1.96962407523352   -1.04695843051036   -4.41666489737465
C         1.78128530858552   -1.16128263927954   -2.02744004014497
C         2.81390413962260   -0.74457707902510   -1.03252203049058
N         3.94547859424983   -1.34075469291671   -1.26412068717045
O         5.03124210004339   -0.95467897038965   -0.48992164043919
H         3.28526440735574   -1.07052917548982    1.81609502831752
H         1.66469238436163   -1.59854470627875    1.19002833919427
H         1.85401614338903   -0.20776592417660    2.26145533500852
H         3.35703658604542    0.84784520158058    0.41367113536614
H        -0.86177882721425    1.66994399253719   -0.18897795967963
H         3.86972623592384    1.69734443684147   -1.32535602755522
H         2.94421659282703    3.04984601392179   -0.51063642223934
H         3.68569913348391    3.08064867619263   -2.23868822265345
H         1.51484452772653    3.99965492281704   -3.05182499599263
H         0.13926158431720    2.84149501410258   -3.15944701657051
H         2.51128268076433    2.48779922578918   -4.85246784076141
H         1.05950170102404    1.67418566104932   -4.93618903546512
H         2.00408715316268   -0.49531426955114   -5.27083632809559
H         2.16644578230485   -2.17725372660376   -2.19441084763044
H         0.78170928748918   -1.18832595324049   -1.58313705351582
H         5.62381812836270   -1.72324715188236   -0.59882492125811
