32
 energy: -49.294809573416 gnorm: 0.121337526809 xtb: 6.4.1 (79825abcba525fcdf90b791dcacef51065a7a4e7)
C         2.21310179256483   -0.38031924900397    1.60083082241281
C         2.49905227481401    0.36480399951461    0.29634798100127
O         1.26959039963752    1.05750266823646    0.03373696267171
C         1.02460018079261    1.71715855367420   -1.12586824380960
N        -0.16517315971004    2.15826726683451   -1.33746247394288
C         1.97754295516451    1.94251895778924   -2.35429232526563
C         3.39887841122690    2.35729536150950   -1.88344621241353
C         1.44166201894552    2.81727364215333   -3.51301242263782
C         1.60768796797061    1.59537405491603   -4.43463863957511
N         1.99518640098446    0.77752256678500   -3.29571783600700
C         1.76446532848744   -0.59884202685497   -3.12576928368468
N         1.58919689917850   -1.42674570540489   -4.10719036991289
C         1.80653119008589   -1.15554747537121   -1.71521471081610
C         2.86983452496959   -0.64930887530977   -0.79711040255999
N         4.03476995301613   -1.22336457598754   -0.85107275279119
O         5.06915593386933   -0.69942421277924   -0.08762455192304
H         2.98533576137082   -1.07057754189483    1.95855746087449
H         1.36327013050976   -1.03441849016397    1.38580509072392
H         1.92817483339682    0.32042833429186    2.39326967974540
H         3.31539038528806    1.07434164880089    0.47303485424259
H        -0.80501577669965    2.31514756014347   -0.54644756522356
H         4.06975459123063    2.55259270060424   -2.73014139005177
H         3.93885012623456    1.52258336805916   -1.42066624770911
H         3.28737167885899    3.15088179444221   -1.13977814345500
H         2.07250718112074    3.69571536163325   -3.66465364686952
H         0.42609778300278    3.17337281128676   -3.29594723953161
H         2.45954530519711    1.68670525124927   -5.12246104766050
H         0.83488350841038    1.18488454647728   -5.08539151409055
H         1.66201565808988   -1.00510000026580   -5.03023974435055
H         1.98903414278837   -2.22809457664269   -1.87256934697551
H         0.83398980276799   -1.04272488738515   -1.22662180508883
H         5.65577470547986   -1.47431576308955    0.00789939913983
