32
 energy: -49.286283192783 gnorm: 0.123903900197 xtb: 6.4.1 (79825abcba525fcdf90b791dcacef51065a7a4e7)
C         2.05834781029838   -0.61324310665068    1.58973156589014
C         2.34474077604428    0.23326776791249    0.34874397290214
O         1.25059274263104    1.09883955403665    0.01110802541099
C         1.11398145065391    1.82855729460773   -1.12410105908055
N         0.06579205909098    2.55395368169159   -1.29733117044861
C         2.06919156939762    1.90448454836654   -2.36897920280240
C         3.53015857712847    2.34581616980620   -2.07789199046959
C         1.38760976965607    2.70897996000685   -3.50177652518371
C         1.54434990434690    1.47618390131034   -4.41042635252782
N         2.01023861682896    0.70700879679100   -3.26696929351644
C         1.80706534033618   -0.67389366749925   -3.09867433752040
N         1.61268400719014   -1.52250210208261   -4.05857562551576
C         1.84256227883601   -1.25146711039679   -1.69635355123333
C         2.86968070446349   -0.58695061681023   -0.84005184887717
N         4.09662923328712   -1.01266507680122   -0.89381935020564
O         4.90842877115858   -0.54023893922184    0.12848983784915
H         3.05896132084223   -1.00341880233223    1.80723028389085
H         1.33984131548662   -1.38739463340317    1.30559504484689
H         1.72199810936079   -0.03793665964052    2.45926089585930
H         3.20232418341117    0.88543429518851    0.54949098342322
H        -0.62326944032435    2.68355843974147   -0.54359949680347
H         3.94809343599475    2.97993636352597   -2.87056509275505
H         4.16024594024348    1.49394979310074   -1.79541643021157
H         3.58621817043676    2.90650329366311   -1.14101279028174
H         1.91671123701441    3.64826777547224   -3.67616279271589
H         0.34453215043830    2.93112203788993   -3.24113001024072
H         2.17762091675811    1.62412220165106   -5.29596802299865
H         0.58008649060797    1.14666689302294   -4.79878479716597
H         1.50279326546762   -1.21534095086648   -5.02225807608021
H         2.15673904958386   -2.28922053707450   -1.87742225671018
H         0.79536807282579   -1.09084061013160   -1.42272580244144
H         5.81436058438255   -0.87945866463842   -0.00537894368483
