32
 energy: -49.292778854959 gnorm: 0.111996155381 xtb: 6.4.1 (79825abcba525fcdf90b791dcacef51065a7a4e7)
C         2.06713648491651   -1.10779373166962    1.28925341630960
C         2.41018282940191   -0.06872174995460    0.22093678352186
O         1.21933605762396    0.70447466285716    0.01016738600282
C         1.00041823445650    1.71138060479149   -0.87191294943249
N        -0.13216782559083    2.32134696337650   -0.86194012538773
C         1.91207536658073    2.08907951256697   -2.09426222372109
C         3.33472290440408    2.58372940212317   -1.71304647231829
C         1.31359424265494    3.04195763372363   -3.15673105636593
C         1.46429725042232    1.89343991770714   -4.17072995157108
N         1.90598799711525    0.99393000054260   -3.11623107664224
C         1.87625479984147   -0.40498929638553   -3.25274085782960
N         1.64862609163516   -1.05697591448947   -4.34929431371672
C         2.12069541558378   -1.30595275093234   -2.05696984381525
C         3.01883670621632   -0.84804094103080   -0.95539551207294
N         4.27333836736326   -1.12852623665254   -1.14795721306255
O         5.17889734166192   -0.54813241573363   -0.27021751661635
H         2.95927475742812   -1.23991961820859    1.91166984896827
H         1.85366902363275   -2.08991016598026    0.85777377218418
H         1.20355036097209   -0.78157338369158    1.87915949332166
H         3.13637999102226    0.56467287184076    0.74297008062715
H        -0.81333905108186    2.02543041445107   -0.14909109394791
H         3.20664962739075    3.62087824879133   -1.37684990671867
H         3.92844202720919    2.49167659692380   -2.63038106000079
H         3.74239352487799    1.96790731506859   -0.90693035688579
H         2.01929122024132    3.82648066611325   -3.43804213101002
H         0.32045935930111    3.49709527303027   -3.04797696269637
H         2.12881587600383    2.05743413728969   -5.03016166022745
H         0.52336487675405    1.52725340539333   -4.58275104580223
H         1.43480083710161   -0.56468446767281   -5.21360658750021
H         2.51268099714711   -2.26774690830511   -2.41714255915235
H         1.10878847053179   -1.50148791354115   -1.68941161046095
H         5.92275316068503   -1.18081822778334   -0.27973102915488
