32
 energy: -49.286597466534 gnorm: 0.121714680984 xtb: 6.4.1 (79825abcba525fcdf90b791dcacef51065a7a4e7)
C         1.39526047897001   -1.01245551185183    0.84653577613517
C         2.18840067051055    0.09733427475403    0.15519860997944
O         1.11807300168214    0.82142151267592   -0.46967645707508
C         1.27903035987070    1.89841429512985   -1.27839743686175
N         0.45652433283913    2.88137994872704   -1.16807074490365
C         2.23698514344369    1.82339063999700   -2.52121965974151
C         3.72908344496922    2.18352587888185   -2.28064689908440
C         1.51995596509405    2.62749579805272   -3.63220142031668
C         0.98331979291110    1.33084660745924   -4.26522637929960
N         1.81987087922142    0.62046240065036   -3.31038961750905
C         1.70652932266781   -0.70732077100312   -2.86246132238938
N         0.79586541697038   -1.60321638286741   -3.08016104398329
C         2.90982876495645   -1.16262588195318   -2.05864392374008
C         3.26452640417829   -0.42870845123936   -0.80749972546357
N         4.49684940687947   -0.47155648306710   -0.39631789471522
O         4.80986537912153    0.19178399494327    0.78237690395717
H         0.91790465512445   -0.56094668806373    1.72348581030614
H         2.08921784276957   -1.72855802575757    1.29588653084159
H         0.74811308051554   -1.57075466605347    0.16119484855502
H         2.68270561932113    0.73160594946636    0.89980044861231
H        -0.11894614896333    2.63419575650033   -0.35109565645759
H         4.37031519933879    1.31470357134163   -2.08296470200125
H         3.79983999016008    2.72437743660461   -1.32935726676885
H         4.21803998264414    2.75606673089024   -3.07334724683555
H         2.23323573200217    3.17638581879700   -4.25072567862743
H         0.84832285479516    3.36629432178268   -3.17571446496045
H         1.34919215307120    1.20776939224627   -5.29386207200495
H        -0.06766194140464    1.04879442665839   -4.19387069269889
H         0.16398907129893   -1.34122395348190   -3.83328790591074
H         3.72757094037708   -1.13297024867855   -2.79270343266189
H         2.74257397519392   -2.20078549653534   -1.75608951625858
H         5.72226261073799   -0.13553868755227    0.90109706616111
