32
 energy: -49.286113055630 gnorm: 0.128198741671 xtb: 6.4.1 (79825abcba525fcdf90b791dcacef51065a7a4e7)
C         0.69085694127007   -1.12670797574081    0.22078875814830
C         1.71732921941928    0.00109611137618    0.10648905563292
O         1.07184069328460    1.06262176276893   -0.61245487146447
C         1.98050360053574    1.92973455733762   -1.12460473767738
N         2.63014537079042    2.85331473785126   -0.50826486435445
C         2.17939616999545    1.82873581241852   -2.67964621550681
C         3.53118969692887    2.45689861160080   -3.11781942352627
C         0.98374787498770    2.37929465849243   -3.49346838826761
C         0.60885703069868    0.94921575460240   -3.92280425434849
N         1.79625189189447    0.48589190929016   -3.22166151388968
C         2.11739980739668   -0.83123187157883   -2.84944763154169
N         1.43411860290949   -1.81523287222418   -3.34361329016198
C         3.26442373992876   -1.07380046759978   -1.88671647843184
C         3.03141129233097   -0.45023904426920   -0.55004771406853
N         4.18639856038651   -0.24362164450864    0.00927340202216
O         4.22455534572456    0.60952358892061    1.10380905343972
H        -0.23642191678453   -0.73021106802413    0.64940780236516
H         1.10323553551651   -2.00841851420546    0.71961353244663
H         0.46462695740944   -1.50812853480911   -0.78097380973050
H         1.99619308545560    0.23974166193029    1.13913279533670
H         2.56859722307694    2.87434055031434    0.51910280485025
H         4.22535485588923    1.64597769053533   -3.37404318356846
H         3.94243400766919    3.01771158290048   -2.26997168329939
H         3.50541820654503    3.14276977991635   -3.96880234839361
H         1.25013528318955    3.17637800204762   -4.19083230219814
H         0.28564237656184    2.76246157424614   -2.73773929401425
H         0.51036248611742    0.69987997576368   -4.98827713714376
H        -0.29359875489560    0.53365076802689   -3.47326341043481
H         0.58976578116330   -1.52113384697160   -3.82908409031206
H         4.20769382504373   -0.66380379126175   -2.27474915570371
H         3.40387533243254   -2.15908229132001   -1.88440712086668
H         5.07935731227222    0.42765477985656    1.53963087197100
