32
 energy: -49.282763451955 gnorm: 0.125997105083 xtb: 6.4.1 (79825abcba525fcdf90b791dcacef51065a7a4e7)
C         2.03815753231846   -0.72644266150390    1.43860679072015
C         2.23005000072857    0.13890265962991    0.19240994772021
O         0.96701695543780    0.64067805628927   -0.26947908978463
C         1.02368807582197    1.68926113629061   -1.12803150682553
N         0.13541277929081    2.61185195323025   -1.00677641104600
C         2.13523203039111    1.84740065972108   -2.22683763043851
C         3.64300480062710    2.11364774248940   -1.96289872680394
C         1.54907601599774    2.85363616410322   -3.24610582640177
C         1.33828697965966    1.70893704434073   -4.25369205578298
N         1.91187416096715    0.79959921980783   -3.27375371411693
C         1.73667824243557   -0.59170331871238   -3.17336521423153
N         1.26809760801062   -1.29778608331220   -4.15377849080503
C         2.20614817512853   -1.37262136876909   -1.96046799114881
C         2.96912739071229   -0.65492200417536   -0.89624181314685
N         4.25037785376965   -0.86035487577643   -0.82060437441218
O         4.90040286079888   -0.21732232495815    0.22404755216758
H         2.94282848730409   -1.34359311695827    1.40031912995236
H         1.17950805650363   -1.34466394283728    1.16144391011548
H         2.05382525163087   -0.08694173839384    2.32797903115090
H         2.90334868612596    0.97730707572581    0.40410964407311
H        -0.45553800697328    2.19733382226741   -0.27283739157205
H         4.25463185906924    1.30779914806082   -2.38907826756282
H         3.90180970642763    2.19409410293360   -0.90034178347442
H         3.84006761795523    3.09163946372533   -2.41006068120495
H         2.32963222111287    3.53839044639242   -3.58443129577149
H         0.70491291915613    3.38525265375031   -2.78777493406553
H         1.89383899526183    1.70399899235018   -5.20155256672590
H         0.34588905754900    1.36266435661044   -4.54429361133389
H         0.89728825804579   -0.70984805192734   -4.89670319720545
H         2.79351466110086   -2.20805803490597   -2.36724959432175
H         1.31432258089350   -1.76784556110944   -1.46475268513593
H         5.81191802837341   -0.10990755011486   -0.10957722000029
