32
 energy: -49.293011750562 gnorm: 0.129894436596 xtb: 6.4.1 (79825abcba525fcdf90b791dcacef51065a7a4e7)
C         2.21548818870789   -0.71493811199787    1.56190419056624
C         2.47867660165783    0.07301795762192    0.27796147062700
O         1.25444955163196    0.76096840398251   -0.01930072508799
C         0.92023984349818    1.64283743291151   -0.99421673384278
N        -0.18593883854266    2.29944448883038   -1.00627923911842
C         1.95335761961944    1.88503863653238   -2.15262910199150
C         3.31017091893624    2.27335611680816   -1.50286205315097
C         1.53783592208718    2.91441095566833   -3.23092903911565
C         1.66123483681762    1.78716722307643   -4.27212660817656
N         2.01295059942978    0.84073994342588   -3.22486918180685
C         1.81581461714607   -0.55115920175607   -3.20910851215016
N         1.65785223836595   -1.23382971988959   -4.29921847528787
C         1.78780251001603   -1.31239618570290   -1.89720596620351
C         2.81614918287533   -0.78395203854044   -0.95218906348416
N         4.06611064824305   -1.03627423913470   -1.20409438151506
O         5.07251122183833   -0.43031540402575   -0.46430198148168
H         3.12078462207935   -1.28299346047755    1.80381667932370
H         1.33539538631062   -1.34354962346083    1.39887056787240
H         2.02859717125253    0.02700539132181    2.34598421054074
H         3.20925150707592    0.86352110659581    0.48395885341886
H        -0.82181153241356    2.23514121695056   -0.19928135157777
H         3.87820519017729    2.81649109546015   -2.26931498089459
H         3.86185624660432    1.35033993546848   -1.28800560540467
H         3.15509578952243    2.91360058286277   -0.63034036201389
H         2.21443917584062    3.75544667041604   -3.39672257371038
H         0.50105888020009    3.26147796573864   -3.13126718060914
H         2.46044484115809    1.96405039608982   -5.00498245035232
H         0.73438441658202    1.50819794903726   -4.77445331269284
H         1.80521429936259   -0.79495710653905   -5.20518926427699
H         2.08252631674524   -2.32782524151265   -2.19798297217908
H         0.78439785650832   -1.29491509823162   -1.46113002025737
H         5.69468194026109   -0.37308281619566   -1.21485601185254
