32
 energy: -49.293199463047 gnorm: 0.120050751503 xtb: 6.4.1 (79825abcba525fcdf90b791dcacef51065a7a4e7)
C         1.95663352133788   -1.09012375606275    1.16574351484192
C         2.37437732966778    0.03374405818772    0.21650010468187
O         1.16047906106414    0.76666664255135   -0.00631807401996
C         0.97110251288434    1.60197754796785   -1.05809871457826
N        -0.17810178713788    2.16704751834813   -1.18030752963380
C         2.09802277732309    1.94010094798531   -2.09907720040773
C         3.51645214070930    2.33207350105361   -1.60073431910553
C         1.48310565872994    2.92533046399776   -3.12191449430898
C         1.58466186902822    1.81023129197638   -4.17843627563017
N         2.17078598637832    0.91719896992011   -3.19095032824753
C         1.71855936345866   -0.41322035278997   -3.14656871135775
N         1.04635717837582   -1.00574436439783   -4.08272595694930
C         2.14043687705686   -1.30316187879798   -1.99271510989123
C         3.03553407330964   -0.66927231885416   -0.97940763729245
N         4.31513332710887   -0.83299248625488   -1.13861776922573
O         5.13309756905662   -0.24102177811265   -0.18581863466515
H         2.89706702095038   -1.62274652899343    1.34648636633141
H         1.15934968810504   -1.68055040225373    0.70527571304546
H         1.47108009700166   -0.69749172233614    2.06589230551143
H         3.11855039678640    0.63681204530847    0.74902735309787
H        -0.66285036142844    1.86084280084567   -0.32533847532811
H         3.49914923067342    3.26002958779172   -1.01446925521066
H         3.98189738952420    2.52672416613599   -2.57436192032397
H         4.00410653366806    1.50273131551690   -1.08146551147155
H         2.05579633284178    3.84886966242508   -3.23017931556411
H         0.45496234205090    3.16219536870759   -2.81841660973431
H         2.33926661586631    1.93216616109814   -4.96761657525315
H         0.72564932887413    1.35007639300013   -4.66788760366501
H         0.76195674892560   -0.38592870614705   -4.83774434482126
H         2.66103925655579   -2.17042592664494   -2.42312342042433
H         1.25677088293135   -1.70939202593612   -1.49131687682357
H         5.99601857240857   -0.49330038812103   -0.56716646592893
