32
 energy: -49.288903639198 gnorm: 0.120071007581 xtb: 6.4.1 (79825abcba525fcdf90b791dcacef51065a7a4e7)
C         1.86174966769710   -0.53230023943223    1.54060999025057
C         2.37317476570674    0.37185710167580    0.41829288233018
O         1.28199913987343    1.17461387707924   -0.05635415070198
C         1.03466650712882    1.70854250836625   -1.27848226027626
N        -0.13518485730412    2.19116723837037   -1.50963319592644
C         2.18572960799430    1.77286546436839   -2.34564169476922
C         3.59889980940401    2.22117406447390   -1.88099198057638
C         1.62915263032932    2.68880365623322   -3.46200888809872
C         1.35096278602269    1.43180358883681   -4.30614118995395
N         2.00744288996541    0.62388637834995   -3.29003079469478
C         1.90947586746162   -0.75403534164351   -3.02882511474670
N         1.86608985412390   -1.61836483829030   -3.99338877063553
C         1.81780601512705   -1.22311359716020   -1.58906231397011
C         2.82707451449110   -0.60129176170188   -0.68103052471358
N         4.07672544955634   -0.85374254207145   -0.93434373902453
O         4.97194250723967   -0.04596736803041   -0.24629816774252
H         1.22419971393171    0.04821788939117    2.21684879577507
H         2.75593963399852   -0.91116012784406    2.04378513478143
H         1.30428347151494   -1.37277543024969    1.11279836794738
H         3.14105808741088    1.06020747676535    0.78923600552425
H        -0.85137416682838    2.05767115670803   -0.78233253437528
H         4.24271776661831    2.65829745596625   -2.65528533043418
H         4.12202929854745    1.38091542602760   -1.40899641575564
H         3.35702927749851    2.98003769267730   -1.13207274979600
H         2.45026756595681    3.26864670431040   -3.88882599269452
H         0.74666279573801    3.25719360625378   -3.14038925679023
H         1.80483865973362    1.51878225193049   -5.30290263138504
H         0.30556861213428    1.22088675613688   -4.53389715681966
H         2.02977108011183   -1.14669277067628   -4.87986592208886
H         1.86445420139205   -2.31203763755648   -1.44590694388908
H         0.81087838153836   -0.93628024039319   -1.27108104893288
H         5.82746287597730   -0.45238490069903   -0.48423305666562
