32
 energy: -49.285688465571 gnorm: 0.129605076396 xtb: 6.4.1 (79825abcba525fcdf90b791dcacef51065a7a4e7)
C         2.15075521525994   -1.08228682407858    1.29656324768250
C         2.25846193294654    0.01405296669792    0.23586058375869
O         1.01207839809131    0.70011066100163    0.04553083252239
C         1.02417440443138    1.71485656444160   -0.85446624828935
N         0.08176447643018    2.59048672947126   -0.86116966141455
C         1.98399505877897    1.89068521684696   -2.08562079045719
C         3.41630546095454    2.36379833791127   -1.71335627420292
C         1.40711817063727    2.89023581685630   -3.11669210259089
C         1.38006447130731    1.73343480796881   -4.13211202761628
N         2.07605551351026    0.87684623750277   -3.18446801314535
C         1.99680299919451   -0.52006074492625   -3.32181468610604
N         1.82741380721524   -1.19444032699697   -4.41536410834152
C         1.96617824724518   -1.32102382222385   -2.03384148345870
C         2.83903441002248   -0.74097415880755   -0.97013497182325
N         4.11183660719625   -0.88181689741181   -1.19298993177063
O         4.97180040217548   -0.39165833552690   -0.21957949640609
H         3.19238670764819   -1.26919945887383    1.58088290314437
H         1.58271979868418   -1.92894117471072    0.90057346198241
H         1.64197875523979   -0.75480181452178    2.20984851038852
H         3.06106867849439    0.68431904235647    0.56393929628734
H        -0.40870371237522    2.57625200617818    0.04379051208952
H         3.15064057618159    3.34811064281056   -1.30634265278735
H         3.87184291192578    2.37443078784355   -2.71077867664346
H         3.92400909840838    1.68720472150654   -1.02074277256964
H         2.06182473241949    3.72194582957902   -3.38546394782723
H         0.41788217638642    3.33377314836920   -2.94354070470827
H         1.89728690545434    1.87154717994713   -5.09154305677410
H         0.39481441833405    1.40791817037907   -4.46756533699133
H         1.76838719457991   -0.66928281764916   -5.28475082575323
H         2.30076073812996   -2.34181286126194   -2.26722824538696
H         0.97164761984298   -1.28667476096376   -1.57884951418347
H         5.89783996626905   -0.39967648128135   -0.52956297608220
