32
 energy: -49.290261231238 gnorm: 0.127287184205 xtb: 6.4.1 (79825abcba525fcdf90b791dcacef51065a7a4e7)
C         2.39465534668760   -0.78767657491205    1.44661440182720
C         2.52142542586371    0.06875278637824    0.18601537321849
O         1.25462022593277    0.72693587529831    0.03644235188769
C         0.96999397918869    1.62888226888514   -0.93583893032832
N        -0.09852657896006    2.34151571723220   -0.86285281851158
C         1.84701039638290    2.08125975398861   -2.15817673787905
C         3.11870353168777    2.85476988054102   -1.71274592591781
C         1.03039934271866    2.82599783143069   -3.24146246227289
C         1.53404270640370    1.81467725382479   -4.28720246350562
N         2.10043745146665    1.03367269085063   -3.19843915209193
C         2.14148270655025   -0.37129414424808   -3.22806454466393
N         2.34794843460631   -1.04129900842606   -4.31792520109439
C         1.74885429119815   -1.18436496253345   -2.00900200681946
C         2.79508357157488   -0.88689632906526   -0.98590682471655
N         3.97159566900394   -1.41555384904069   -1.14673890850520
O         4.92766671727103   -1.19291338988662   -0.16506666294703
H         3.28080748572636   -1.43226745266835    1.44394023712163
H         1.54948479172016   -1.47300697644511    1.33568781501358
H         2.36658328343436   -0.28167031354873    2.41788136317483
H         3.35912635928737    0.77486042248750    0.21319970191165
H        -0.70994671991077    1.97852111068175   -0.11846386529398
H         3.93264700907744    2.15710877696790   -1.47636992315242
H         2.84553651860416    3.33540319867470   -0.76572414521473
H         3.43279820872484    3.68810085227788   -2.34690630029230
H         1.19610625111414    3.88177817594081   -3.46616138789046
H        -0.03279949763252    2.72669698738201   -2.98642874683007
H         2.40558914855790    2.16398532805608   -4.85772209209827
H         0.81535545236209    1.37357844018089   -4.97867056402720
H         2.36277647698063   -0.46411306004975   -5.15562701588752
H         1.81293185107407   -2.26589617083838   -2.19503801794468
H         0.76399739621457   -0.84751509006017   -1.67154419030079
H         5.73064688552135   -1.51458994296050   -0.61833299557983
