32
 energy: -49.290386627386 gnorm: 0.130330592626 xtb: 6.4.1 (79825abcba525fcdf90b791dcacef51065a7a4e7)
C         2.10072711181987   -0.86762077811448    1.24124456732118
C         2.55503272013205    0.11614696761691    0.16214342832548
O         1.31157067946819    0.80851095655319   -0.02442228016215
C         1.00264224549488    1.68808068033614   -1.00969923416494
N        -0.14530454469843    2.26685083528617   -0.96329989579289
C         1.98067719191082    2.03645440197171   -2.18868031581048
C         3.34576148988701    2.45149639666148   -1.57368844910282
C         1.40330927888862    3.01923351631336   -3.23547920475271
C         1.27601777671461    1.81463946260169   -4.18560979688392
N         1.84018165840035    0.92468176663825   -3.18267854370755
C         1.89361105333867   -0.47905823366239   -3.23883471694494
N         1.53744748727368   -1.06630189443284   -4.33775385678376
C         2.14858977236891   -1.37647249491086   -2.04259553119925
C         3.03240675155019   -0.74307873869986   -1.01912744188211
N         4.25314879657730   -1.18902753262075   -1.04022204518716
O         5.06377800904414   -0.64410802419981   -0.05368059510321
H         2.88737658174732   -1.59375275953985    1.47509307178785
H         1.23141789477620   -1.42564359335617    0.88178975729484
H         1.71733681757127   -0.41078749588502    2.16021416772747
H         3.43424434720057    0.67352466150383    0.50476109150438
H        -0.70944999564963    1.83893502247194   -0.21607666277582
H         3.27478201987571    2.82444964818636   -0.54365135959406
H         3.64049568456163    3.31988591137162   -2.17494569095705
H         4.03085002350328    1.61386598917720   -1.72952289910218
H         2.05348274503363    3.87411001357802   -3.43316879420072
H         0.43176313397325    3.38059476955127   -2.87380149573863
H         2.00611351256345    1.87502158571900   -5.00439926463732
H         0.24314377300203    1.63176282176553   -4.48382967843805
H         1.38058917048471   -0.47386706256679   -5.14986484584917
H         2.56773115431738   -2.30559068357562   -2.45428106649744
H         1.17012139392029   -1.61729884149388   -1.61610869385112
H         5.99367854284182   -0.83433916628517   -0.28346404330503
