32
 energy: -49.289776199501 gnorm: 0.120301808185 xtb: 6.4.1 (79825abcba525fcdf90b791dcacef51065a7a4e7)
C         2.25000290631902   -0.89658805559890    1.36577753517802
C         2.52294070012152    0.08881820521618    0.22861823879831
O         1.36079805537917    0.92280332742443    0.10917891589594
C         0.95329808595734    1.65545105543702   -0.95713313494104
N        -0.28474015152993    1.95578836893423   -1.13593027386001
C         1.89080548573701    2.11685045142153   -2.13020748042848
C         3.32341268547310    2.55777075060591   -1.72136046642538
C         1.23328614956484    3.07114011853331   -3.15587601784758
C         1.50305596893669    1.97888264866900   -4.20668331083129
N         1.86208466843819    1.03179666255792   -3.16250745818426
C         1.92114690040678   -0.36555528849629   -3.30538283157672
N         1.98939826084668   -0.99026772223411   -4.43869963989868
C         1.88546883484550   -1.11452365765016   -1.98662275474194
C         2.92595171931246   -0.78995621574021   -0.96590812817642
N         4.10917073012128   -1.31027463452171   -1.10297721720291
O         5.02784507101826   -1.06325053236227   -0.09187012018916
H         3.15091819884038   -1.37957196514789    1.76055384983112
H         1.66273637482433   -1.76849910760683    1.06380921043201
H         1.77762819252740   -0.40727339247977    2.22462745004546
H         3.37413562288176    0.61915496797997    0.67052314809945
H        -0.95625829100833    1.52070765826176   -0.48825539668646
H         4.06156325983506    1.76083003041262   -1.87987808912832
H         3.29593787157062    2.74733668753358   -0.64164348948938
H         3.57530041766743    3.48689560245336   -2.23956404462347
H         1.72948560587211    3.99840353366430   -3.45013642575277
H         0.17755912147119    3.12732355025934   -2.85993937781210
H         2.35488382852574    2.14755432528156   -4.87976661790045
H         0.72292493173048    1.59767348305273   -4.86644297159940
H         1.87085663820269   -0.25495307040571   -5.13178554680203
H         2.06505372794936   -2.14179164919653   -2.33432208986752
H         0.89816012610272   -1.06344457570286   -1.51768656559202
H         5.86185785650242   -1.45677163400231   -0.41322216796014
