32
 energy: -49.288061204855 gnorm: 0.118571140239 xtb: 6.4.1 (79825abcba525fcdf90b791dcacef51065a7a4e7)
C         1.89664619702820   -1.14752553094389    1.26650606697048
C         2.42715298210845   -0.05386217050288    0.33854334104798
O         1.23427740816997    0.70754360707672    0.09837339616729
C         1.04169650065894    1.61569794735844   -0.89057483527887
N        -0.14650467998796    2.09245679820701   -1.01622731768013
C         2.08004080667282    1.95850981628433   -2.01850837184385
C         3.51348883781186    2.38662433396526   -1.59913421407700
C         1.42489330112073    2.88874945060639   -3.06752332370134
C         1.40150966820689    1.76609869142175   -4.12066461546299
N         2.13890065226613    0.97555151561551   -3.14728575076252
C         1.84732310092668   -0.39798298117021   -3.21714104397242
N         1.66549591964819   -1.05794762743722   -4.31746664642797
C         1.92696502394417   -1.19977829158637   -1.93178655141059
C         2.93781666954031   -0.63288913704078   -0.99018011419487
N         4.17741156728884   -0.68672819493622   -1.37752013192804
O         5.14420565755277   -0.27877594084331   -0.46856184674661
H         2.67707247806156   -1.88180911659704    1.49570597566731
H         0.98289784969058   -1.53510033892945    0.80700039676265
H         1.60021449117914   -0.68988750099631    2.21670897579628
H         3.15266148085772    0.65041919170465    0.76126667929419
H        -0.88894831782494    1.76458757017648   -0.38298660960159
H         3.65952881477509    3.44417468813094   -1.85480625711348
H         4.12615628082562    1.82777463311594   -2.31663298148682
H         3.77374749678396    2.12860588446310   -0.56911126555950
H         1.97088801152932    3.77976241935125   -3.38470812244171
H         0.41886532545241    3.25987267790293   -2.83200285879900
H         1.90067631843013    1.88585661384663   -5.09205160026495
H         0.43353104484785    1.30630932567874   -4.32270125605615
H         1.88098040552380   -0.45702390148856   -5.10965660996377
H         2.17699462140867   -2.20628943699908   -2.29626646697090
H         0.96676703184847   -1.38404398278579   -1.44050792542563
H         6.00848936245624   -0.50554366439562   -0.86263468234170
