32
 energy: -49.291277960157 gnorm: 0.124750100671 xtb: 6.4.1 (79825abcba525fcdf90b791dcacef51065a7a4e7)
C         2.39003839433371   -0.50318692136188    1.60350324291242
C         2.49198929079476    0.17360304088104    0.23594587358102
O         1.19140160515105    0.74083699186261    0.01894403493282
C         0.86616068230046    1.59006073173204   -0.98747918148491
N        -0.36328284570487    1.96645025090004   -1.02882077909205
C         1.87544027674812    2.01580528389562   -2.11353832700351
C         3.33682905231621    2.30866305741501   -1.67478196524971
C         1.32806960350568    2.99039084766445   -3.18384888856581
C         1.59814965000148    1.92176297806980   -4.25859971719547
N         1.87596089938409    0.97437308146815   -3.19021309690965
C         1.87456247261736   -0.43140383099267   -3.20705115956774
N         2.05970635284838   -0.94430061779907   -4.38263165423491
C         1.80110081368604   -1.20940018928424   -1.90678975024498
C         2.83388246544185   -0.78540711752678   -0.91512501407422
N         4.00443149221744   -1.28296342926046   -1.18304127048880
O         5.09164342745397   -0.97005167034125   -0.37844357456964
H         3.29839987586528   -1.06507748274632    1.84830637832615
H         1.51769560062586   -1.16166118942953    1.64504139577863
H         2.29205448166498    0.21408531410731    2.42576206931762
H         3.26291008641551    0.94887757031380    0.31144659604403
H        -1.06746441792773    1.60544506474984   -0.37039983042099
H         3.88719599423604    1.36280502500345   -1.58784848190433
H         3.25444824485276    2.88261864864321   -0.74404717952857
H         3.95275271877947    2.80351257431233   -2.43043886948308
H         1.98392196986597    3.83712877604046   -3.39718683795713
H         0.28102094479189    3.28433610502876   -3.03358274901949
H         2.42292177144977    2.02253720090495   -4.97741643524799
H         0.71991288906203    1.70275616815212   -4.86682983669225
H         2.05045706738714   -0.26621374078647   -5.14106455099836
H         1.95164309399138   -2.26090269713921   -2.18981727612553
H         0.77045262881003   -1.12138600113454   -1.54998934016639
H         5.85328038923973   -1.29825530379153   -0.89409349087141
