32
 energy: -49.293396691765 gnorm: 0.121770143505 xtb: 6.4.1 (79825abcba525fcdf90b791dcacef51065a7a4e7)
C         2.09647987444539   -0.81322625818299    1.54638519512032
C         2.47945026890715    0.11646017908490    0.39414016767550
O         1.38959464483836    1.01811041353435    0.14998030373082
C         1.00851460888536    1.59853197859636   -1.01524032657410
N        -0.10627507658176    2.21982757262906   -1.17693552711501
C         1.97709943644406    1.83830814089129   -2.22860909779978
C         3.29134928690443    2.48577486263826   -1.71143969404094
C         1.29670707719792    2.69485839588797   -3.32331650613822
C         1.84456728951820    1.69505395687925   -4.35783976706795
N         2.30781541833853    0.82891756158787   -3.28481337813041
C         1.86561743752055   -0.50272012701437   -3.19708497552070
N         1.44469951923245   -1.18618893872157   -4.21444891395785
C         1.76288700928921   -1.08288357236284   -1.79915380289579
C         2.86026031826323   -0.63745037474189   -0.88966597124083
N         4.06723482265282   -1.00923891671535   -1.19709442376615
O         5.11821209582874   -0.65172594744869   -0.36345645549462
H         3.00639915297149   -1.34524832250205    1.84600093234200
H         1.26620599310262   -1.45768461822695    1.24370642983750
H         1.73804894359859   -0.15162611181703    2.34262787344956
H         3.38052681297097    0.62182713925675    0.75983830211624
H        -0.71088028181629    2.07731390291391   -0.35604760032932
H         3.05521720661271    3.30993360701312   -1.02579209431394
H         3.84157041418960    2.89496441894956   -2.56718468145160
H         3.91173662726593    1.74008220871458   -1.20714078633176
H         1.60920276462078    3.73985243192086   -3.26896168573958
H         0.21006736363803    2.64360744318715   -3.17539048559429
H         2.60988092820910    2.05938704584528   -5.05688083469524
H         1.00244565163520    1.18946164376888   -4.83156462649961
H         1.38611345316210   -0.70329357736454   -5.10803022891557
H         1.89712307465676   -2.17387235690680   -1.81137034929037
H         0.71195038489770   -0.89209123219462   -1.56162651004322
H         5.87808425056400   -0.89734042875660   -0.92556957435598
