32
 energy: -49.285820647275 gnorm: 0.117559251618 xtb: 6.4.1 (79825abcba525fcdf90b791dcacef51065a7a4e7)
C         0.94878678013416   -0.74788483201787   -0.02668904002501
C         1.93117961490970    0.41110081844035    0.14740404974348
O         1.36329420510618    1.50934525212333   -0.58179950587691
C         2.21031458301234    2.21406672369814   -1.37285859512223
N         3.22019831723473    2.88988445110683   -0.95058516005109
C         1.93516743943171    2.03424835367131   -2.90904621182998
C         3.02094496545450    2.76779435978336   -3.74386799576168
C         0.44564360124652    2.14985398280952   -3.31271745764197
C         0.42629398521486    0.64140027652038   -3.61962315729351
N         1.79402658521805    0.55958141717388   -3.13096183300098
C         2.41890587344624   -0.65211773812433   -2.78773417900862
N         2.06102360114673   -1.79301172221690   -3.28734607168475
C         3.55234712313879   -0.45903035472797   -1.79809643410451
C         3.22502994965485   -0.24727459415255   -0.35662844393806
N         3.90008199586753   -0.97648574012410    0.48127505411923
O         3.52401169496672   -1.03210902869243    1.81648971591995
H        -0.05798466649452   -0.32700912236581    0.07353599030349
H         1.05117257488935   -1.59834727990062    0.65340397406094
H         1.01237119210858   -1.13104283491101   -1.05106048587360
H         2.07886183372128    0.72891988601471    1.18579262901244
H         3.31700591916070    2.78047656889789    0.06842062659599
H         4.04151317661795    2.41017205821598   -3.55504153226857
H         3.09328065667314    3.80165442029400   -3.38556674815406
H         2.78319924345858    2.79514869034850   -4.81063136162185
H         0.25707193196341    2.79267579761297   -4.17517984673585
H        -0.20850040824290    2.52801146855979   -2.51623320935947
H         0.48212466087971    0.41137614797966   -4.69250423782706
H        -0.37531504668248    0.02994086116522   -3.20399350442782
H         1.28979307838631   -1.74060502217503   -3.94883290785300
H         4.12185962646161    0.39485477293950   -2.19174701517789
H         4.25512047712909   -1.29346259125046   -1.88248340825913
H         3.81786382255538   -1.92415004016279    2.08410339995721
