32
 energy: -49.293839345679 gnorm: 0.115361871926 xtb: 6.4.1 (79825abcba525fcdf90b791dcacef51065a7a4e7)
C         1.94320470632565   -1.01510228994486    1.37395198808895
C         2.41020799602243   -0.01435710016621    0.31609149926030
O         1.25026454897841    0.77966448842950    0.02551720466796
C         1.13511931751424    1.74625013711575   -0.91910128855066
N         0.00178281082704    2.34944964309929   -1.00039292230192
C         2.12214005746138    1.90746944444236   -2.13059266635551
C         3.47517542416736    2.39371611340943   -1.54170435053344
C         1.47759738057715    2.89229618533021   -3.13541973442896
C         1.49579969654124    1.74258104493069   -4.15905144199214
N         2.00822515467117    0.82171766601036   -3.15625162693338
C         1.83373257181144   -0.57199994689465   -3.21623284274907
N         1.70644129062409   -1.20370992611449   -4.34054165179676
C         1.83533522322864   -1.32441896859007   -1.89895620220561
C         2.84543543156692   -0.75357981344424   -0.95893105545942
N         4.07033271586779   -0.87223577208382   -1.37734933556473
O         5.02088119337545   -0.21460633464907   -0.60838760798253
H         2.80587416815402   -1.66314147666533    1.56530709725602
H         1.06615420796534   -1.63517370736229    1.16757952469274
H         1.75810675506956   -0.45871243693239    2.29934864452798
H         3.21419370820022    0.60870591181371    0.72409799444198
H        -0.74437882766023    2.11582848707514   -0.33078217816122
H         4.00761025000408    1.52483910320493   -1.13344644421038
H         3.12458303920867    3.09588154514940   -0.77585348268719
H         4.07014504467846    2.95986370832966   -2.26332988803418
H         2.03362690331699    3.82093789927539   -3.28059642486949
H         0.43955886303067    3.11011232710341   -2.85199991317925
H         2.21368856849306    1.85001633926158   -4.98379091561419
H         0.53849062053455    1.47589329877927   -4.60810004694255
H         1.77582707107911   -0.61150755782454   -5.16491401220239
H         2.17189877667374   -2.35596619301961   -2.07519577746109
H         0.81976563172780   -1.24203542364525   -1.50005762295418
H         5.91576904800118   -0.41140089068700   -0.94624993704900
