32
 energy: -49.289552341286 gnorm: 0.125811019794 xtb: 6.4.1 (79825abcba525fcdf90b791dcacef51065a7a4e7)
C         2.10456373257510   -0.43572220022181    1.53794520701033
C         2.41967039856911    0.35825261420687    0.26949592207086
O         1.18284204246208    1.03228458558425   -0.00674490615104
C         0.95385468820951    1.77912253895013   -1.11563992768938
N        -0.07526942286027    2.52995793220166   -1.29469121670084
C         1.98474873210813    1.87619030564862   -2.29705782853312
C         3.40915866526365    2.16463365180293   -1.74770660316582
C         1.53811416022668    2.68793757907590   -3.53664659486949
C         1.66664665603675    1.40344149291147   -4.37542386180932
N         2.02744061109380    0.66385981715434   -3.17583086582654
C         1.73870327695349   -0.69923306302229   -2.98847354168638
N         1.46804613612183   -1.40949790783966   -4.03804461559237
C         1.84562343962281   -1.32284738704735   -1.60969584052810
C         2.89542623902423   -0.58065168422894   -0.85017845827602
N         4.09119186258570   -1.03636909003999   -1.07819742569522
O         5.11501825171371   -0.37956609579167   -0.40908579951642
H         3.00394035816830   -0.63313653913071    2.13201542464867
H         1.50666865113613   -1.34443313924925    1.42365771715802
H         1.45944998294717    0.13414146989803    2.21564243636436
H         3.14104030981849    1.10558182694889    0.61905897460987
H        -0.70068079562516    2.54351740556971   -0.47713917550409
H         3.84326364412790    1.30690312610214   -1.21765016004854
H         3.40894018637259    2.98751297733292   -1.02289736958004
H         3.91433532051994    2.46626515596422   -2.66915674213484
H         2.27255208983782    3.45107485806845   -3.80280998766186
H         0.50748277177397    3.06617605712580   -3.53124123067282
H         2.51615603265847    1.33538265085478   -5.06882402769043
H         0.74693180908417    1.12250593161512   -4.88962954163741
H         1.48729774923494   -0.81294849146870   -4.86197786154204
H         2.10991008786480   -2.38909074798704   -1.65096015831823
H         0.90220650480533   -1.25557935037079   -1.05948841414061
H         6.00059082661224   -0.71975038890574   -0.64090293190919
