32
 energy: -49.292049456978 gnorm: 0.123619233458 xtb: 6.4.1 (79825abcba525fcdf90b791dcacef51065a7a4e7)
C         2.16856680478822   -0.98639073039744    1.39356751614610
C         2.36205578046175    0.03475658191771    0.27175113590843
O         1.13131452144679    0.75179907966921    0.09427298456072
C         0.94431387734565    1.61867212874266   -0.93208571659428
N        -0.09135615606153    2.38164486333549   -0.94511558511989
C         1.97933909261978    1.84785350213570   -2.09144399798730
C         3.34281907376880    2.29964785276957   -1.49921582914554
C         1.48711962468039    2.80114626943687   -3.20676874429145
C         1.59781662158990    1.67928032070301   -4.25517757312957
N         2.27273471953800    0.90956463087425   -3.22163994150137
C         1.91498826293308   -0.44965882475986   -3.25362940993501
N         1.53553248675616   -1.07597795787843   -4.32277325193554
C         1.85593118902074   -1.23762896799612   -1.95865062806061
C         2.85046684968354   -0.74100620203595   -0.96161919128772
N         4.09390265241892   -0.89896315245733   -1.30577532760991
O         5.00568820003477   -0.36370529813863   -0.40607139601180
H         3.07114355138117   -1.60630099227733    1.35071138988468
H         1.25511381284199   -1.58228308548028    1.31103471468211
H         2.20862773318985   -0.40733003181223    2.32269276054485
H         3.08425305525789    0.80321996832505    0.57002107329316
H        -0.70280738946156    2.24357368146172   -0.12855063280734
H         3.90797200775006    1.42766325813630   -1.14516265507234
H         3.17319953790225    3.09423372784317   -0.76277753550150
H         3.86693416938868    2.73338103625636   -2.35503956691617
H         2.23335253696737    3.56262320991825   -3.44322137011758
H         0.50280376988510    3.25080952582136   -3.02178258493119
H         2.31544520062978    1.97698989287071   -5.03201746386246
H         0.66929682613268    1.27668892389753   -4.66135344060941
H         1.56841160118335   -0.46539788497095   -5.13592684426098
H         2.00806454794662   -2.27000327282255   -2.30431495361811
H         0.84152688594641   -1.16335269425000   -1.55522074770612
H         5.87115742944008   -0.34766316470475   -0.85818751557935
