32
 energy: -49.286772100977 gnorm: 0.119147632043 xtb: 6.4.1 (79825abcba525fcdf90b791dcacef51065a7a4e7)
C         2.16212427852748   -0.82632804435317    1.44201691878491
C         2.51402617584684    0.06642153261481    0.25129652586937
O         1.42207972577143    0.98748640890998    0.11106481661907
C         1.01723667064306    1.62668313307666   -1.01471490891257
N        -0.11937607037869    2.22913900368195   -1.00646775463612
C         2.00996579050883    1.95385985199684   -2.18747118005263
C         3.31917814938285    2.63082418891664   -1.69593045820031
C         1.30547472025787    2.89316528169590   -3.19563489065750
C         1.34850682312270    1.77426728024377   -4.25214499780168
N         2.01673008005636    0.92617991811753   -3.27725926090319
C         1.93104378870236   -0.47628698116599   -3.32457387576730
N         1.68402726375565   -1.16090726886554   -4.39677197842056
C         1.97754255546486   -1.23958038396053   -2.01439230619583
C         2.92579838063788   -0.80426507051530   -0.94616082987200
N         4.16819755653992   -1.14809635839091   -1.11274645478012
O         5.09830024018642   -0.83592236154907   -0.13051562106208
H         3.01397613080201   -1.09277755491586    2.07772380061343
H         1.71488670486197   -1.78185806780718    1.15350927774212
H         1.47957682199788   -0.29572988427822    2.11490951792266
H         3.37649452457277    0.72317638898649    0.41220410543773
H        -0.74948243110325    2.01631878953774   -0.22072726487975
H         4.17383932982060    2.00159595004517   -1.41533340575872
H         2.98966177134101    3.39657981586306   -0.98352878791570
H         3.73093231329673    3.08506487605570   -2.60112617497858
H         1.84838002706530    3.80173014448567   -3.46467811671377
H         0.31630588498105    3.23697420793152   -2.86603654233793
H         1.89166853907516    2.11214341485234   -5.14540702060324
H         0.31446030020171    1.47603948533593   -4.42825759339786
H         1.50358826340232   -0.69623823046026   -5.28369489997873
H         2.21274473664945   -2.28173034773152   -2.27329088653995
H         0.98941741876564   -1.20294544064627   -1.54582500462492
H         5.72655712454445   -1.57801582196581   -0.22158651034153
