32
 energy: -49.293099375663 gnorm: 0.125162545410 xtb: 6.4.1 (79825abcba525fcdf90b791dcacef51065a7a4e7)
C         2.05236353649236   -1.18619764618390    1.24339053010387
C         2.36875130636936   -0.09307543634606    0.22180625572198
O         1.20383790253349    0.73330937271515    0.07884684930902
C         1.01509571567291    1.71325574732751   -0.83981076210906
N         0.07191063003758    2.54338556623974   -0.56377455997663
C         1.82279473484431    2.01284243930400   -2.15350138356057
C         3.26958173564607    2.47882368449156   -1.83163363604952
C         1.18197775508178    2.96211793146305   -3.19428284030995
C         1.40240944360799    1.89242852987831   -4.27925867205292
N         1.75423213355129    0.96146758474267   -3.21826423798153
C         1.99506720424028   -0.42044792954410   -3.31208419802959
N         1.97864601918302   -1.02615991204133   -4.45758593112367
C         2.08448029015457   -1.31232248059993   -2.08818886407364
C         2.97377960333279   -0.76540056113110   -1.02056056811381
N         4.21235843159834   -1.15903984409402   -0.99826611058066
O         5.12154260408252   -0.65348632408416   -0.07896159310047
H         2.92999997720168   -1.81365936037584    1.43526611023821
H         1.18856870892692   -1.79305560538989    0.95724782527605
H         1.79287930627678   -0.64428904024047    2.15946524804235
H         3.20857134331077    0.45430841268650    0.66468667820002
H        -0.44505695027464    2.41309902271835    0.31684143072379
H         3.78437875970168    2.80768230673335   -2.74374363602435
H         3.82974781077257    1.65395049063551   -1.37525983688974
H         3.19757520506499    3.33433884019606   -1.15475532347449
H         1.67610336798457    3.93342127617935   -3.26520692972504
H         0.16068013962681    3.24814575782055   -2.91067414489594
H         2.28702671785819    2.13003332866588   -4.88596965023733
H         0.61953734673692    1.64422806397261   -4.99669541101390
H         1.84247965780651   -0.44130324043988   -5.27887103211636
H         2.32418095332082   -2.32737815891665   -2.43550809104229
H         1.04663856901060   -1.15181740476323   -1.78092445478216
H         5.96744054711696   -0.94684057187109   -0.46896579639670
