32
 energy: -49.290691211763 gnorm: 0.132001338410 xtb: 6.4.1 (79825abcba525fcdf90b791dcacef51065a7a4e7)
C         2.42065128000090   -0.75383927003814    1.44106754416316
C         2.57812580791298    0.07271023930564    0.16409084644116
O         1.34258520127667    0.77449385291661   -0.03916179750322
C         0.81544500643353    1.63053307631818   -0.94974972287505
N        -0.39444398939671    2.06605725712607   -0.91237468850548
C         1.75416410972873    2.10402999233297   -2.11702006899204
C         3.22061017044407    2.39995382943155   -1.69762165619577
C         1.13361287243365    3.08115096698347   -3.14422362612121
C         1.53098498712561    2.07459414273613   -4.23918338094254
N         1.84038820543582    1.08884663322845   -3.21509931348006
C         1.97792516520466   -0.31009317109073   -3.23844920999627
N         2.13892707902882   -0.91860965610029   -4.37119673252950
C         1.86326384744239   -1.20634721819409   -2.01986964285265
C         2.92204949095991   -0.81480867165490   -1.04238431611289
N         4.04545409557749   -1.46771366412464   -1.07707732457739
O         5.05575438847313   -1.08190079101223   -0.20658162433055
H         3.39101938175235   -0.65423357304991    1.94030157310266
H         2.30644573501435   -1.82227807569880    1.23688296274466
H         1.56994063659028   -0.37279242391202    2.01664081526729
H         3.44939501536764    0.71462745409480    0.33701305077493
H        -0.91705594559704    1.62846895756601   -0.14094237827053
H         3.25057869731158    3.15262080098822   -0.89905861044482
H         3.74416843788877    2.85222594448712   -2.54839514914025
H         3.85527771432124    1.54833087294266   -1.43840974868137
H         1.54389822660960    4.09294723402788   -3.16777718131408
H         0.05736897472332    3.11343661604879   -2.92986099107925
H         2.44665393536897    2.32880524763118   -4.79057169015626
H         0.66551914923188    1.73681579326736   -4.81021958262115
H         2.18091947870762   -0.31527109928294   -5.18932083339533
H         2.07563704197926   -2.19905195298570   -2.44160419071611
H         0.89085200569233   -1.18170065897284   -1.51877437423599
H         5.81110225530539   -1.63379807989400   -0.48687130663168
