32
 energy: -49.287026425106 gnorm: 0.118386931815 xtb: 6.4.1 (79825abcba525fcdf90b791dcacef51065a7a4e7)
C         2.33321126156686   -0.57118290828425    1.50706200956124
C         2.52448547321171    0.10337801889250    0.14800589141224
O         1.19797487723403    0.58404529639136   -0.11600375849596
C         0.88541926631423    1.47973664498470   -1.08548626161111
N        -0.32817050159004    1.90604962087029   -1.10463625176971
C         1.93254695992807    2.02517261729397   -2.12179516793538
C         3.28447041253155    2.55474272344463   -1.56881373072037
C         1.30619661550186    2.99818083306028   -3.14938295336948
C         1.60215747207466    1.96166145794537   -4.24848843406936
N         2.09144219966411    1.03776530588122   -3.23695837837057
C         1.77898726082002   -0.33294451629037   -3.23240646590689
N         1.36935562602457   -0.95020528617735   -4.29566652024364
C         2.03271130029516   -1.17793071186867   -1.99831686817289
C         3.06759387031904   -0.74433811306507   -1.01301359508389
N         4.25173054780916   -1.27093615824008   -1.11321962864576
O         5.24388609986160   -1.05585802547206   -0.16628258374564
H         3.24407696004906   -0.99529429907298    1.94435294845351
H         1.51884228990532   -1.28310523619877    1.34499563298102
H         1.92469864025885    0.17009458741159    2.20263012325012
H         3.23868855286544    0.92288383368396    0.28726828188397
H        -1.00940421071391    1.53390320579078   -0.42851328789854
H         3.08309786326452    3.19993235821430   -0.70377728490083
H         3.91699764877924    2.99583796672811   -2.34844385966463
H         3.95494571282453    1.71537740684447   -1.36587505235042
H         1.76955509861895    3.96688213232560   -3.34822268544127
H         0.28871635668938    3.28741283635919   -2.85548943712994
H         2.33156148559055    2.15841951633735   -5.04620895313289
H         0.64182909185706    1.70529109384214   -4.69709885898416
H         1.30263434245587   -0.37390923460646   -5.13145294814209
H         2.26118432949965   -2.21741069449071   -2.27346504981481
H         1.09140550485003   -1.27163208503833   -1.44836035305587
H         5.85584399380983   -1.76300617784657   -0.44762285849737
