32
 energy: -49.290824979849 gnorm: 0.123773893561 xtb: 6.4.1 (79825abcba525fcdf90b791dcacef51065a7a4e7)
C         2.27778854295184   -0.82884072196187    1.36013001532893
C         2.43048705380422    0.07194267220116    0.13378411751249
O         1.19948945901396    0.78681131461031   -0.05055318988734
C         0.92143343605539    1.75293548729371   -0.96112404079529
N        -0.10951301275586    2.51753011377428   -0.87478694674566
C         1.85500803175361    2.01440130428165   -2.19724179001860
C         3.25421767504186    2.38495979299984   -1.63259253499822
C         1.33917224992995    2.95598187148557   -3.31184301251072
C         1.46795169135481    1.77387752640779   -4.28961766850596
N         1.76375219006234    0.88484634967211   -3.17682733571508
C         1.90273966769492   -0.51267996977739   -3.24083422912527
N         1.88443562237063   -1.17668092323685   -4.35353300961177
C         1.94409997854978   -1.34525754916079   -1.97337274449671
C         2.95380109140093   -0.80258595411806   -1.01638880696673
N         4.18052037742276   -1.22945864475995   -1.06604713819391
O         5.04996045848203   -0.71372127697738   -0.11451682541023
H         3.22558743396063   -1.32588569129369    1.59548872992238
H         1.58066126186674   -1.66832728098676    1.28548683377056
H         2.07668451184208   -0.08454498071986    2.13844287753623
H         3.23154052760010    0.78858384833949    0.34781356716106
H        -0.70594067230120    2.33565137350105   -0.05569674488730
H         4.06238720409647    1.64538743296620   -1.56185815917556
H         3.10390383454212    2.69134387668922   -0.59047286561953
H         3.62990125066152    3.31600508801776   -2.06534174844319
H         1.99505388042438    3.81203338022107   -3.48393495590362
H         0.30096038435466    3.20586799182565   -3.05695542746552
H         2.34624333549653    1.85169492390280   -4.94509476065140
H         0.52772097328749    1.58393832402547   -4.80836324203130
H         1.70292276868293   -0.55113330873744   -5.13510264270638
H         2.30545250602110   -2.35660716215727   -2.20793916526418
H         0.97957907009693   -1.32123528122869   -1.45722250302813
H         5.85345722605456   -0.81109857689946   -0.66097261533659
