32
 energy: -49.296723911880 gnorm: 0.119115239286 xtb: 6.4.1 (79825abcba525fcdf90b791dcacef51065a7a4e7)
C         2.30997265159061   -0.83299066327986    1.42218559826473
C         2.51741831160248    0.15056910052007    0.26969772183077
O         1.31580182228635    0.92992953434401    0.17436871095781
C         0.96841009566944    1.56904648380179   -0.97048884831316
N        -0.24967632967892    1.93361551514538   -1.16610193604705
C         1.96014651126114    1.98713650733405   -2.11485441874455
C         3.39340651857755    2.45442490146466   -1.73890590258714
C         1.33274118154266    2.95721378830852   -3.14456749463510
C         1.46558400851742    1.90550956844880   -4.26093173593917
N         1.94887495436967    0.99355131812785   -3.23577872376542
C         1.85474227583525   -0.40910824552102   -3.22238418354170
N         1.91903566583842   -1.14779348326277   -4.28518301864094
C         1.75803074731370   -1.09806771017488   -1.87429796264408
C         2.87413305017123   -0.67173946074665   -0.97854859824587
N         4.06306541040877   -1.12804486871150   -1.23884009805993
O         5.06200443556981   -0.86580952682715   -0.31111466952899
H         3.25712857314385   -1.28481364349388    1.73765638603847
H         1.63842434739315   -1.66499018185707    1.19176118738524
H         1.81862114797828   -0.27523939021528    2.22696948752300
H         3.34976591448536    0.84414650850405    0.43467556408408
H        -1.00574191840528    1.67867643909243   -0.51565172803896
H         4.06696003608216    1.59009924410776   -1.67275883056804
H         3.28422810938106    2.88758980780101   -0.73744342174069
H         3.91825489642012    3.19018544067197   -2.35408552528507
H         1.90769440882233    3.88288910572574   -3.21650168363039
H         0.27278540941333    3.20917769002849   -3.00928046953548
H         2.20726653938952    2.15638461672113   -5.03169155900999
H         0.50154842400650    1.70594609261048   -4.72999194615623
H         1.96347470355732   -0.52810990753329   -5.09086612342580
H         1.94169152490514   -2.15784218965737   -2.10139236124226
H         0.80232964970251   -0.89301120646392   -1.38248909215363
H         5.64708145216384   -1.62902649783428   -0.48107955881280
