32
 energy: -49.291337649157 gnorm: 0.115654615730 xtb: 6.4.1 (79825abcba525fcdf90b791dcacef51065a7a4e7)
C         2.32167999574489   -1.02839366423884    1.35321801604166
C         2.47367566933625    0.00959814486200    0.24050865317040
O         1.22815607985732    0.68742031767654    0.01777443072729
C         0.96389747263422    1.59455830112484   -0.95542563455063
N        -0.14008769935607    2.25487525478129   -0.96581066861454
C         1.93807394825516    1.97643725873395   -2.12720273544393
C         3.39721266867825    2.35410158723556   -1.75009025506170
C         1.36731093634158    2.96703169399432   -3.17025049603360
C         1.47044802875765    1.84746630576979   -4.22188454987833
N         1.97585807278386    0.93752318210625   -3.20564594895389
C         1.78305096894755   -0.45415069568729   -3.25627655385232
N         1.52793842339758   -1.00721786426775   -4.40011446889683
C         1.93144799805789   -1.30278855402226   -2.00761855076827
C         2.90845109334440   -0.74164545602562   -1.02762344725827
N         4.17601808707216   -1.01956006112106   -1.10221453704837
O         4.91041697135961   -0.42030658383169   -0.08787999100991
H         3.28957791378475   -1.52388754979704    1.48897364887290
H         1.50944145633442   -1.73922893382283    1.17636354031423
H         2.16014072043229   -0.54043886622152    2.32068639555731
H         3.20588614744026    0.72052083473997    0.63991643723685
H        -0.85054523143184    1.88884204749716   -0.31697758546089
H         3.48646339428993    3.13713769696022   -0.98589304597759
H         3.97469572950529    2.84324713865846   -2.54364478609482
H         3.99079123660958    1.56061948412989   -1.28823963414072
H         2.17932121678760    3.65071292187438   -3.42684320136294
H         0.39974316992210    3.44468317991324   -2.96787387720337
H         2.22241819705883    2.09190659062730   -4.98470287006232
H         0.59845103623520    1.49730024879831   -4.77524939373529
H         1.41508853799229   -0.32281612265388   -5.14440405200260
H         2.28484953498878   -2.30231340422610   -2.29827730911813
H         0.92782308217098   -1.42263172582990   -1.58849642427161
H         5.86769227819990   -0.51296248269021   -0.25741522093843
