32
 energy: -49.292962574504 gnorm: 0.113301535851 xtb: 6.4.1 (79825abcba525fcdf90b791dcacef51065a7a4e7)
C         2.06427957598706   -0.98975774187042    1.34014837430510
C         2.50634626294866   -0.07948553404892    0.19357375305392
O         1.31217143062804    0.69577914466484    0.01113577201244
C         0.92886230167780    1.68765274620825   -0.83095161590116
N        -0.10478416747962    2.39931563275025   -0.54807266597575
C         1.76401313169715    2.09452308131167   -2.09779514907830
C         3.20338845485126    2.56063758153752   -1.74443139659877
C         1.09092024669783    2.97762040090050   -3.17579397686397
C         1.45070271208043    1.91539985312067   -4.23042291084602
N         1.94384603345651    1.05776478912923   -3.16391062685886
C         2.04760718915082   -0.33154254102887   -3.35246554711717
N         2.22674452767056   -0.92034806492118   -4.49288158296720
C         2.02150737107328   -1.26303394393524   -2.15538691079603
C         2.93494786734651   -0.90507336279066   -1.02964373422129
N         4.16455279568260   -1.31211350021364   -1.13880637539707
O         5.04422095712320   -0.89951047585885   -0.14720984000932
H         2.65222656784190   -1.90460260444291    1.47486055864528
H         1.01144127687839   -1.18929762117631    1.12103404661773
H         2.14716926157267   -0.47068302115038    2.30133546483712
H         3.30800495071279    0.60420467673922    0.49520411590838
H        -0.58112227890050    2.06469196408513    0.30095241589219
H         3.70689413939760    2.65944625274330   -2.71490937038978
H         3.72813849131099    1.81406596461632   -1.13636307854658
H         3.36704486215972    3.50679598962279   -1.22169225444515
H         1.56641529124403    3.95381234956026   -3.29230265058504
H        -0.00326590893612    2.96870568146660   -3.08650897997303
H         2.17823983776529    2.31407080349731   -4.95073754802156
H         0.60218923523065    1.49572392942924   -4.77181433415021
H         2.23703523317264   -0.27861111592279   -5.28229630999728
H         2.15011750683762   -2.28817859557862   -2.53083725120860
H         1.00928703534507   -1.14266945433491   -1.75762931460278
H         5.92188506749125   -1.29543749200990   -0.31046065873073
