32
 energy: -49.291287122736 gnorm: 0.125411140301 xtb: 6.4.1 (79825abcba525fcdf90b791dcacef51065a7a4e7)
C         2.24998584080485   -0.68345788105164    1.59103100009709
C         2.46056848961252    0.05754082270924    0.26996034841170
O         1.19956909910926    0.70312295667638    0.03870999584629
C         0.91898642521447    1.57259667272703   -0.96385627070695
N        -0.25009475284445    2.05048361734027   -1.20836159733614
C         1.93530666449071    1.94037108285744   -2.10392121200041
C         3.29659702112334    2.45929668689936   -1.56398163212916
C         1.40925782133370    2.94931955256674   -3.15286924724080
C         1.76792187409239    1.90134804053197   -4.22203429796130
N         2.02912311940800    0.91148121355591   -3.18853816826124
C         1.90390133572339   -0.48742536263567   -3.25078028445488
N         1.80669532208413   -1.11815277847873   -4.37863877453002
C         1.78078320368409   -1.22534027337207   -1.93105372134810
C         2.83473295882784   -0.71863431335205   -1.00248168959681
N         4.06186036809762   -1.00472420455353   -1.32160131156289
O         5.00103945555794   -0.80628781372051   -0.31866230035600
H         2.98759080279126   -1.45073351860279    1.85179367448779
H         1.28177562001898   -1.18637184077170    1.51394500788208
H         2.22590610931393   -0.04469935862180    2.48074870859699
H         3.32567436662726    0.70656483257607    0.44724399396797
H        -1.01584128717873    1.69479898132688   -0.61943438134687
H         3.58996758475857    3.32519578426981   -2.17165019631089
H         4.05329932008388    1.67563119996847   -1.68947621041353
H         3.13961784952533    2.81958468567959   -0.54378289317750
H         1.96393949082829    3.88327986778366   -3.26541657770337
H         0.35014376508559    3.23523878945081   -3.11018170873085
H         2.69908334265154    2.01252447725966   -4.79446778199800
H         0.92057864530251    1.67398174007467   -4.86973923627620
H         1.91063669837779   -0.62141789616150   -5.26043152790017
H         1.93302775388900   -2.29655491922012   -2.12533667115038
H         0.83590246061053   -0.93003873045841   -1.46491415147564
H         5.82633620018839   -1.03348102311138   -0.78873873297797
