32
 energy: -49.289410977112 gnorm: 0.120290417364 xtb: 6.4.1 (79825abcba525fcdf90b791dcacef51065a7a4e7)
C         2.02046791789273   -1.00244322556572    1.19168035696725
C         2.37378378671464    0.03847019509110    0.12851575508447
O         1.09351317378739    0.51555066943573   -0.31156819329982
C         0.96759603954993    1.63065499212483   -1.07349835157605
N        -0.09994816203473    2.34471592990353   -1.14681934426846
C         2.09011716775071    1.98957694048109   -2.11226412367343
C         3.51323406738140    2.37917722582517   -1.62556104583511
C         1.56092717979352    3.03347203552459   -3.12480419509703
C         1.08099790381999    1.89396095857760   -4.04196312263104
N         1.90905509013243    1.01271485615200   -3.23332025878974
C         1.86718763331968   -0.39235690103516   -3.25600643874507
N         1.43411077474703   -1.15259223315212   -4.21194448046199
C         2.30325018278240   -1.25497785672043   -2.08678053268333
C         3.14175537120374   -0.66925811595187   -0.99882444371443
N         4.38637642284724   -1.03628758400992   -0.92309967097531
O         5.06218769180729   -0.58705673085784    0.20330691112187
H         2.94256772770207   -1.44850893428677    1.58094567674775
H         1.28652690862548   -1.67506574283004    0.73868446167657
H         1.48112883396496   -0.50077888467090    2.00262803317989
H         2.94100695590529    0.83563977163584    0.62232581908191
H        -0.84552504202767    2.02789790879647   -0.51163744434824
H         4.10869638692494    1.52141453618335   -1.28677437660069
H         3.48806838873585    3.24726349937081   -0.95603004220637
H         4.04689152779836    2.70352376347279   -2.52292630747559
H         2.24471393787202    3.73139664419010   -3.61261301336627
H         0.77062072819731    3.76227248478804   -2.90218289449748
H         1.29489873199186    1.90965572718535   -5.11950758995238
H         0.01945373093011    1.65560462079709   -3.96768058223956
H         1.00818395712035   -0.66284008513172   -4.99542198365454
H         2.95234769438011   -2.01198941561959   -2.54941539137908
H         1.42185530407950   -1.81871403084255   -1.76641620675995
H         6.02402543168089   -0.73523566204258    0.12197740429257
