32
 energy: -49.291550435314 gnorm: 0.125777027853 xtb: 6.4.1 (79825abcba525fcdf90b791dcacef51065a7a4e7)
C         2.12480319614294   -1.01726098720222    1.40206699107606
C         2.46516545322233   -0.03368937453601    0.28162412323709
O         1.30981186150280    0.79145612434317    0.07028207437685
C         0.89217930099774    1.56627465886744   -0.96174970783975
N        -0.28320212539886    2.07119215964099   -1.09756728284239
C         1.95421591148096    1.95808174222718   -2.05100560186055
C         3.24620169916708    2.59799037602563   -1.47202404042929
C         1.37106970923219    2.92985997871293   -3.10484808462139
C         1.53742406302384    1.85560125786392   -4.19493639884467
N         2.09492995630249    0.97942037307966   -3.17627505286983
C         1.89164659106993   -0.40669659794493   -3.29396038800696
N         1.75523816459305   -1.11775632627926   -4.36872439738468
C         1.90309074114395   -1.17580835477801   -1.98640891599015
C         2.93743408610694   -0.69233589945732   -1.02401852556281
N         4.16545465553404   -0.99118815845255   -1.32762887369742
O         5.14414225763800   -0.63105448160997   -0.41122539849942
H         2.61422059276056   -1.99459631568030    1.32424394433990
H         1.03624437643684   -1.12287113799598    1.41555493222057
H         2.53133769960169   -0.61516778454833    2.33654044863468
H         3.29624162432229    0.59359623336510    0.62352323095652
H        -0.90390198166277    1.83069360413093   -0.31232418722806
H         3.07859769202707    3.01588966823947   -0.47083589807421
H         3.56894572122372    3.38826525082761   -2.16034139214153
H         4.07830782838433    1.89545663852705   -1.37558180255788
H         1.98881782489704    3.80706598737917   -3.30860632529148
H         0.34851607242718    3.28874776377907   -2.92912601405872
H         2.36075254224279    2.03471403005876   -4.90002562095457
H         0.75013395010988    1.48827953155031   -4.85406969481138
H         1.66214922675296   -0.57635091622603   -5.22506688195877
H         2.20431296571568   -2.21447180763731   -2.18355987069928
H         0.89268714988433   -1.12633943329056   -1.56936440212760
H         5.91492349719852   -1.09155017659145   -0.79533907853512
