32
 energy: -49.288154089007 gnorm: 0.116517739166 xtb: 6.4.1 (79825abcba525fcdf90b791dcacef51065a7a4e7)
C         1.90337465007102   -1.21016199669724    1.20651053800434
C         2.43152544026628   -0.11708280606559    0.27651783115910
O         1.37430163684707    0.83301537826788    0.07660844401390
C         1.06312499841065    1.66115571946414   -0.95159533464606
N        -0.03073975618244    2.33058502471076   -0.85043254181225
C         2.07624234583257    1.87976521134550   -2.13215286944675
C         3.42713007715518    2.39407596258401   -1.56248913902457
C         1.51735301826856    2.90915140532494   -3.14358907508157
C         1.45051082475431    1.82020903748921   -4.22974502332501
N         1.91675366650404    0.87255233775997   -3.22937455485171
C         1.78889909958970   -0.52427113739205   -3.32440922004932
N         1.28367610635314   -1.13265533147738   -4.35102953217601
C         2.16300656062761   -1.34627581890992   -2.10551356776571
C         2.96688338928507   -0.63427126255608   -1.06790160202321
N         4.25289655711174   -0.75180013433172   -1.21583248695280
O         4.99285425537784   -0.16787599969083   -0.19660913865147
H         2.73107339950519   -1.85824749340737    1.51581642423362
H         1.05178934341805   -1.73748033400444    0.76715468102550
H         1.56965497280667   -0.73512837905511    2.13557680532563
H         3.21941660709082    0.43901497827534    0.79714496027807
H        -0.51756124042953    2.01500403663639   -0.00006316726583
H         3.21835768168772    2.92050751900851   -0.62206767892580
H         4.06085140445544    2.86372917607901   -2.32426469111835
H         4.05420825520850    1.55574697930902   -1.24747668567604
H         2.12645845650983    3.77151243552066   -3.42277459273093
H         0.53057181265682    3.21316097555129   -2.77058013602760
H         2.15059106847507    1.85546886328270   -5.07576297413035
H         0.45894764718891    1.69706034004749   -4.66660258763630
H         0.92967367015913   -0.53726713918429   -5.09621608248369
H         2.73779074831270   -2.24183706731723   -2.38122768789379
H         1.21132174273198   -1.64022674486868   -1.65254824582515
H         5.92555317596553   -0.06753344265076   -0.46810023945176
