32
 energy: -49.284670095343 gnorm: 0.130248744665 xtb: 6.4.1 (79825abcba525fcdf90b791dcacef51065a7a4e7)
C         2.04728946851701   -0.64124111633039    1.50794228495200
C         2.37789385004064    0.30628559440629    0.35401608962471
O         1.20315957874219    1.00492082796023   -0.08448209123202
C         1.02461355940900    1.79013809314539   -1.17599729522384
N        -0.09875808483093    2.35718954681167   -1.44320203150170
C         2.08676075578809    1.91044536197857   -2.32720639418225
C         3.50857467192806    2.27734865121078   -1.81950852143436
C         1.60129410808133    2.76502630721813   -3.52261841995927
C         1.56681853700808    1.47038216931794   -4.35490808727816
N         2.13402141086795    0.72508520190734   -3.24180879956690
C         1.72229525396328   -0.60810962434677   -3.06985729015333
N         1.27498679975579   -1.43697641774555   -3.95992798399824
C         1.92805965067064   -1.16435327666036   -1.67357340504890
C         2.95757860929624   -0.52289687158046   -0.80269373603348
N         4.18134130507623   -0.91556633224867   -0.99696667233812
O         5.04062583559173   -0.34823557739427   -0.06579164732163
H         3.07402296630974   -1.00737411562497    1.61990262537325
H         1.35838657597860   -1.44782310310849    1.24123264950698
H         1.74161735877173   -0.16621786083317    2.44661547060685
H         3.08630994777932    1.01520501624183    0.79746812043265
H        -0.77550905024626    2.26394820579612   -0.67311842234024
H         4.10464237813620    1.66481891619512   -2.50843467252418
H         3.70249597915330    1.89871132729375   -0.80881215060404
H         3.72046803056439    3.32090292016519   -2.06719998009682
H         2.39775307493410    3.42937543566347   -3.86454513389796
H         0.63480472975764    3.28122176872270   -3.45380604427794
H         2.17396525329841    1.38489094391697   -5.26659119551374
H         0.58399178481077    1.05610282275952   -4.58213457180320
H         0.99368298621291   -0.92728463235860   -4.79430815434709
H         2.08004582874289   -2.25172297455498   -1.72790956044261
H         0.95742312642334   -1.16986926731240   -1.16847636566839
H         5.77695559834256   -0.98948170340977   -0.04775808150667
