32
 energy: -49.291706308974 gnorm: 0.115145223043 xtb: 6.4.1 (79825abcba525fcdf90b791dcacef51065a7a4e7)
C         2.01790863396314   -0.82466881375589    1.49809452625381
C         2.39332477885456    0.14497234528865    0.37670675424544
O         1.21955929254609    0.86550728637132   -0.02761545304888
C         1.00880642407515    1.64947465686148   -1.11427486935765
N        -0.16498886847053    2.13142618882468   -1.32602216519323
C         2.10991350765452    1.91758263922079   -2.20220603352470
C         3.61223071240193    2.19202617417925   -1.91645487031949
C         1.64599345029687    2.92102446063367   -3.28520145358682
C         1.56628962094364    1.72926409198931   -4.25646486945107
N         2.01646563243393    0.81831417279798   -3.21546127520026
C         1.69426801557491   -0.54833165357801   -3.14501936651553
N         1.13805770855117   -1.28896219779074   -4.05134565127655
C         1.98806493305593   -1.20964899373725   -1.81171617002644
C         2.95059439987850   -0.61342452990163   -0.83813494528286
N         4.21497288667462   -0.75653204790153   -1.10345305085478
O         5.02081578539511   -0.22720671171129   -0.10457721927275
H         2.88278746179218   -1.28227980664902    1.99139661378007
H         1.44402569173272   -1.65674450090536    1.08023791111186
H         1.45735203629946   -0.17920053738578    2.18317619561033
H         3.18683854600983    0.79459633638550    0.76322246615602
H        -0.84100651473070    1.88629479504700   -0.58939110027891
H         4.17327754619302    1.57325670296289   -2.62881672430444
H         3.76081331229430    1.88922068457032   -0.87304176689215
H         3.89497679174101    3.22244460852899   -2.14785899732468
H         2.39685738273752    3.65503483819224   -3.58528919173670
H         0.66035844565595    3.29639056196333   -2.98037600166719
H         2.26204533836207    1.78400748118040   -5.10501016159297
H         0.61583690539955    1.51419849701714   -4.74594836827693
H         0.97234094918742   -0.81583195829496   -4.93666680594395
H         2.32464156134792   -2.22239655674643   -2.07531364614534
H         1.00723055641916   -1.43482830752965   -1.38212693768691
H         5.93250258821637   -0.53144706162300   -0.27769078088942
