32
 energy: -49.287020060142 gnorm: 0.120220788284 xtb: 6.4.1 (79825abcba525fcdf90b791dcacef51065a7a4e7)
C         2.22655535466935   -0.98682433452859    1.21785683595813
C         2.47104978869916    0.04869275306303    0.11941309757956
O         1.29169114354400    0.86665353008445    0.09877734765570
C         0.96540591596752    1.65011244614312   -0.95932491729786
N        -0.25610789401668    2.01965803775994   -1.12134241099347
C         1.98154008343039    2.00836705642644   -2.10258251888631
C         3.38910744803860    2.30048586980087   -1.51321786801485
C         1.49150168309222    3.02148735593260   -3.16486591634966
C         1.48830947602121    1.86834557393943   -4.18479333543370
N         1.90575484485802    0.93776918308478   -3.14751631252157
C         1.82585670137064   -0.46168375035488   -3.25541420185129
N         1.42000761350068   -1.11549068327738   -4.29808091490910
C         2.03097034365234   -1.35143411424804   -2.04395748599591
C         3.00161636611588   -0.72724987368264   -1.09630388219723
N         4.27902898367523   -0.96249384603193   -1.14533157190944
O         4.96837349454608   -0.28916139043201   -0.14595748229391
H         2.91144636359987   -1.83355235697688    1.09642321578620
H         1.25250570180047   -1.34888511716232    0.87663110109543
H         2.10722157239756   -0.63026376210913    2.24684366456861
H         3.30584455255659    0.68557704784505    0.43336522321898
H        -0.88384990061904    1.67232721510306   -0.38309051662439
H         3.34204187268602    2.51731088632730   -0.43809910118887
H         3.74346149521072    3.19277844095021   -2.04305372629170
H         4.01668961087271    1.41732319539474   -1.65957253927628
H         2.21752627373541    3.83459670115126   -3.23091150813113
H         0.52297478850442    3.49066509674151   -2.94778867914856
H         2.24422876822205    2.04698086605627   -4.96182449718703
H         0.48318438480199    1.68194220704710   -4.56451034426313
H         1.25688888164928   -0.46858667401488   -5.06620545191700
H         2.44360706847659   -2.30173277939972   -2.41150131027725
H         1.04891461296135   -1.54159596173557   -1.60045582256859
H         5.88133286459629   -0.62820908426865   -0.07346491317510
