32
 energy: -49.291287270499 gnorm: 0.122796680592 xtb: 6.4.1 (79825abcba525fcdf90b791dcacef51065a7a4e7)
C         2.37790215036154   -0.72083227188648    1.35428374368987
C         2.47936678646935    0.09515028511980    0.06489271609471
O         1.14120716681520    0.53230436787005   -0.21546001778468
C         0.87113057600124    1.65988652103493   -0.91935452710569
N        -0.26532132646796    2.24726120262573   -0.78379024119707
C         1.87451643716351    2.09464717274434   -2.04723438858993
C         3.26924506777647    2.61653214310651   -1.60417894055356
C         1.20298468552523    2.99448593954919   -3.11228449114238
C         1.57239116151766    1.94057189787987   -4.17190808200492
N         1.90854436580955    1.02354062568892   -3.09383973161460
C         1.91703278864798   -0.36931592641655   -3.28455626630518
N         1.89990708409828   -0.92497435345390   -4.45514642031558
C         1.99987596146201   -1.30181110911337   -2.09084589152521
C         2.97197787813232   -0.82647522206981   -1.06182659441607
N         4.13564731657976   -1.39702150840152   -1.16120882845480
O         5.03795092988063   -1.09430342630082   -0.15050067247990
H         3.30539070988366   -0.84833788652628    1.92373738849273
H         2.01500091846435   -1.73958107808534    1.19073160355638
H         1.67281333930353   -0.19651681020001    2.00860244151943
H         3.16840795184660    0.91179446700496    0.30858186337966
H        -0.76834806282398    1.89302159152361    0.04155392471481
H         3.07366616309676    3.02930622955444   -0.60594295840418
H         3.61781765926984    3.40727103170764   -2.27924043370235
H         4.03410896210223    1.83633206335030   -1.56510939017486
H         1.81694247828974    3.88911864487404   -3.23601279044033
H         0.12650292154080    3.14371571539104   -2.95668205447926
H         2.33149391163908    2.16718194848276   -4.93316551175399
H         0.69747015159468    1.56113000337652   -4.70081710426371
H         1.87824971381863   -0.18403322550048   -5.15202878523349
H         2.19673860098528   -2.33401399603779   -2.41368856398531
H         1.02216149064320   -1.48244421221159   -1.63397083496775
H         5.88070378661234   -1.39216317752892   -0.54388409242087
