32
 energy: -49.296206101850 gnorm: 0.105965137129 xtb: 6.4.1 (79825abcba525fcdf90b791dcacef51065a7a4e7)
C         2.38373889822068   -0.81096689399912    1.41430961552696
C         2.44215525289571    0.07182150996806    0.16694280331854
O         1.19079563513413    0.76219340297080    0.03330810254928
C         0.93665263484278    1.55834947971963   -1.03505379688556
N        -0.23113746373429    2.08456581884587   -1.15452030553065
C         2.01192456889649    1.99924985392528   -2.09208267958225
C         3.38936063235951    2.55045595293522   -1.63081086529326
C         1.35888408397703    2.97159864797284   -3.10355306704284
C         1.57390500086703    1.91388068565814   -4.20127653813600
N         2.05799300777915    0.98411793158800   -3.19262560279167
C         1.77109050367868   -0.38979986131937   -3.27344045777362
N         1.46694553618192   -1.05480971985737   -4.34329492901110
C         1.98848401296602   -1.32574707849484   -2.09951646217146
C         2.87941569840227   -0.79133190059454   -1.02692700012977
N         4.11140737857124   -1.20484512331667   -1.05394080004699
O         5.02401193423343   -0.75117614608020   -0.11125400297247
H         3.38162601128858   -1.21132104042856    1.62575234371053
H         1.58237239087587   -1.55410123808615    1.37119584145995
H         2.17013690748204   -0.17785205835521    2.28248568210470
H         3.23397379227412    0.79987109452490    0.37679283806497
H        -0.94387338656744    1.82448934223567   -0.45876006383105
H         3.26366839841083    3.32208300993126   -0.86016064368900
H         3.97430243895491    2.99436078380260   -2.44522503059853
H         4.08355902916313    1.81496424985326   -1.21560501568103
H         1.82943745665650    3.94467121106168   -3.25953332023189
H         0.31641986118055    3.15081738103129   -2.80954010705792
H         2.24469108885650    2.03070430752978   -5.06354113628868
H         0.56863965283706    1.70514643717436   -4.56880785247255
H         1.17552599833918   -0.50268537212784   -5.14662622679562
H         2.49899034692870   -2.23463204201230   -2.44842402508943
H         1.02446080654363   -1.67761258198677   -1.71986052589331
H         5.88244920057931   -1.06249272790288   -0.45747758419074
