32
 energy: -49.286602109083 gnorm: 0.117898067406 xtb: 6.4.1 (79825abcba525fcdf90b791dcacef51065a7a4e7)
C         1.49175960243628   -1.03220865602374    0.93987220262029
C         2.15098441295140    0.11129760430199    0.16755888275470
O         1.08614328586380    0.77379117503889   -0.53071619526638
C         1.14220740369382    1.86826032075176   -1.32999361541471
N         0.30635557243886    2.84578407508811   -1.30337401989349
C         2.18674327653431    1.90076217074268   -2.50293921624491
C         3.69982400888310    2.04785296490938   -2.18218859428862
C         1.60177415617403    2.69713612954008   -3.69398750950843
C         0.99834842719346    1.38359572616923   -4.22359783695722
N         1.85609336538438    0.67002035986485   -3.29018448234689
C         1.81860681913195   -0.66136008940402   -2.84016775957920
N         0.84886808694420   -1.47268749444578   -3.12421967069814
C         2.96949732677998   -1.21056527956696   -2.01847477531562
C         3.23537834073221   -0.50883924185360   -0.72746942189220
N         4.49352907164612   -0.50288198914792   -0.40105304526354
O         4.87451680359701    0.13413234709196    0.77214007172769
H         0.92125152608730   -0.74564445091876    1.83047404609071
H         2.28419807318870   -1.66959940138585    1.34245143449775
H         0.90700909698767   -1.56837337344447    0.18436963648635
H         2.66136196364560    0.83045748707485    0.81824592763370
H        -0.42325500036546    2.84955072025796   -0.57717239320152
H         4.16912474597819    1.06045123866646   -2.28170375516989
H         3.84497865783208    2.43990681018335   -1.16843183664644
H         4.15302755949508    2.62956920660297   -2.98932434658007
H         2.43906083372253    3.21069831413105   -4.17129813832230
H         0.78853617091178    3.42068684671683   -3.55111357615084
H         1.02378184539359    0.97745819757606   -5.24414054404683
H        -0.03608511024365    1.31705160888579   -3.88488437446943
H         0.15298347463993   -0.91808330559859   -3.61744033640593
H         3.86757923624003   -1.20238133256584   -2.65235723641677
H         2.68013598374565   -2.25114666042325   -1.84312054016019
H         5.84030516225369    0.09569775818294    0.63257305578788
