32
 energy: -49.292511933155 gnorm: 0.130920975339 xtb: 6.4.1 (79825abcba525fcdf90b791dcacef51065a7a4e7)
C         2.12767243794765   -1.01387273310186    1.41200629774445
C         2.45237410577204   -0.01621320714132    0.29939850736464
O         1.24240862793650    0.72196178499376    0.07256444676885
C         0.98976148253494    1.54376783644497   -0.97655638596887
N        -0.22904099367037    1.89458871006909   -1.19185808162587
C         2.03697775783821    1.92891118360729   -2.08241151705587
C         3.42767260678903    2.35436732476421   -1.53570787276467
C         1.49032816679091    2.92909426269595   -3.12921828746986
C         1.56948497665840    1.89124097230018   -4.26349905048987
N         2.13646019442599    1.00595360239502   -3.25802301337015
C         1.77540796758386   -0.35207172174529   -3.21440290744178
N         1.50714975292403   -1.07480796737585   -4.25604618566380
C         1.85630790268274   -1.18539963469808   -1.94934382602717
C         2.90269175429086   -0.70142840092943   -1.00031290774727
N         4.16174327698565   -0.93417180092474   -1.22424635912727
O         5.09121978487546   -0.29084281521499   -0.41831692789182
H         3.08329539729043   -1.43403811592451    1.74519689063402
H         1.35910758349261   -1.77509987922967    1.25033681142698
H         1.70790111950606   -0.37090263606294    2.19339697138917
H         3.18972563812062    0.65878149186279    0.74858076177780
H        -0.84281188411259    1.63148786100536   -0.40841834464564
H         3.37365980356091    2.49067930161065   -0.44776932740681
H         3.67546140524308    3.28870135927745   -2.05349111055322
H         4.16308333812048    1.59699526904735   -1.81998589297574
H         2.21592725952775    3.72338951682970   -3.31689230497057
H         0.45079103540283    3.25442278805096   -2.99203765909984
H         2.28057336486515    2.14644088152781   -5.06120092619581
H         0.58453347706042    1.57070998701215   -4.60458276925849
H         1.38837319739025   -0.60357531546047   -5.14988047379456
H         2.08224331530640   -2.23022133489240   -2.20571442464780
H         0.83379978354099   -1.09263309931234   -1.57097861984799
H         5.98738391283557   -0.54974347650441   -0.70739066345580
