32
 energy: -49.292801755481 gnorm: 0.112804886112 xtb: 6.4.1 (79825abcba525fcdf90b791dcacef51065a7a4e7)
C         2.06939253796301   -0.85564025644391    1.47154747156161
C         2.33727950917859   -0.04967974404107    0.19981006758532
O         1.09915194699482    0.55248357351061   -0.20616033556775
C         0.92766662804496    1.66308698367835   -0.96576759332218
N        -0.02849780740341    2.49056487702566   -0.72925222357153
C         1.89476546438657    1.99917355719473   -2.15727027290277
C         3.34455649192453    2.26728908860855   -1.66721920587672
C         1.34971199921467    2.98599130170977   -3.21750791702805
C         1.12824515244199    1.81147201030144   -4.18779394217347
N         1.87652769378809    0.98159623279894   -3.25636701696137
C         2.02956849201262   -0.41570185058561   -3.28148259281722
N         1.91889822200821   -1.10951681866425   -4.37038284786242
C         2.18547974977659   -1.33322464503377   -2.08348497139309
C         3.01311431744048   -0.78591193819869   -0.96756523560397
N         4.28298909460604   -1.00592838083630   -1.13649496390317
O         5.14192909726655   -0.48172546184105   -0.18006703092722
H         2.93417589459871   -1.41964026644970    1.83873120422007
H         1.23997754213231   -1.55821585106113    1.35008130416151
H         1.77891387749581   -0.06035048978746    2.16676414713212
H         3.02026602560057    0.73629314283933    0.54163733414283
H        -0.60242440738818    2.32880712453602    0.10988857134790
H         3.42032452434395    3.15349582549753   -1.02378665387633
H         3.93899658652946    2.34437965711197   -2.58546584289940
H         3.74916694051646    1.37860066854903   -1.17550928073791
H         2.15444947585587    3.64091430470613   -3.55823359896891
H         0.52222726150648    3.63774721711706   -2.90802793137832
H         1.48356530699361    1.91497154260169   -5.22226840025550
H         0.09474811452669    1.50463215632690   -4.35193061923751
H         1.64890652381247   -0.57171452426580   -5.19073703856371
H         2.64788610695837   -2.25271831765229   -2.46966735912018
H         1.23037911093069   -1.58443981434856   -1.61235608547856
H         6.03088638231798   -0.79992442228489   -0.42948172600107
