32
 energy: -49.288696775646 gnorm: 0.139243445969 xtb: 6.4.1 (79825abcba525fcdf90b791dcacef51065a7a4e7)
C         2.04028226984233   -1.03763623040675    1.20141287536146
C         2.53334924395911    0.02420728632225    0.21753019597489
O         1.32360557428840    0.74248975299253   -0.06700987610627
C         1.03002223884151    1.72060242395819   -0.95973311281594
N        -0.12981106554729    2.27638094396176   -0.98813322428072
C         1.96741871375856    2.01362854949704   -2.18583936253523
C         3.40735604015954    2.34246017412187   -1.70378100129555
C         1.37175560781476    3.03459089461424   -3.18474765041170
C         1.18220104282056    1.89268174827803   -4.19969132875173
N         1.80451115226780    0.97765269926566   -3.25543042528996
C         1.86132426019982   -0.42679134966068   -3.28377468806304
N         1.41921224896291   -1.03760222733409   -4.33770918128595
C         2.36631565569892   -1.30565179540746   -2.15508398853678
C         3.10939522701409   -0.67775724962022   -1.02221673735335
N         4.37047255032256   -0.98471288932491   -0.95158626354696
O         5.08298548697964   -0.68842650077995    0.20247643426174
H         2.84660672851723   -1.45970628386220    1.81171435898006
H         1.42892170529573   -1.79181228676652    0.69767438018578
H         1.34656536547293   -0.54397256922108    1.89079153661834
H         3.25945597618949    0.76504667363176    0.57107772814533
H        -0.67598018218829    1.94637796598129   -0.18035112283171
H         3.26164146318349    2.64021705934304   -0.65725497274697
H         3.96628063635320    3.10259112495962   -2.26260395228223
H         4.01444312177666    1.43433733063522   -1.65890840278726
H         1.98184274834293    3.89258955224582   -3.47501049480127
H         0.42560707316224    3.47812449364327   -2.84803482352179
H         1.65211268546738    2.00969361824666   -5.18589274990016
H         0.13315541203727    1.64502349172287   -4.36514925641506
H         0.90134053563128   -0.59337675908152   -5.09241471068345
H         2.94484661198491   -2.10094099396890   -2.64624802437372
H         1.40689316113411   -1.62619441572615   -1.73789142718113
H         6.01653867318443   -0.78191030649456   -0.06852642546126
