32
 energy: -49.287982582408 gnorm: 0.131554864465 xtb: 6.4.1 (79825abcba525fcdf90b791dcacef51065a7a4e7)
C         1.93002615267004   -1.16646631235001    1.28894102119435
C         2.31959589084538   -0.05931602750425    0.30858115631885
O         1.24816790598116    0.88627493317545    0.17340616338949
C         1.01081838140894    1.66345586989728   -0.91264416014599
N        -0.08769284086048    2.33097718892939   -0.86167382051660
C         1.99607082312572    1.91573068445585   -2.10995279690744
C         3.43749908850855    2.24609592152134   -1.63343065512625
C         1.34532996930814    2.87986385452026   -3.13072700151074
C         1.55111598520457    1.85492615065321   -4.26083890865419
N         2.01098430491732    0.92931472223262   -3.23714886975387
C         1.98491341654496   -0.47491491874577   -3.30002680513032
N         1.83251909761507   -1.12066943914967   -4.41317906125380
C         1.94816203062080   -1.22020147535961   -1.97921191024716
C         2.90635094880850   -0.69093476269020   -0.96355558691200
N         4.15767353748926   -0.88451246032292   -1.25723207944424
O         5.04895361629885   -0.18989151958414   -0.45073187026931
H         2.73320884328129   -1.89598094432909    1.44216023103085
H         1.00729357960125   -1.68502419908973    1.01333614754620
H         1.76057987941473   -0.61561002124560    2.22062508607516
H         3.13823742293651    0.48945199204148    0.78790311429673
H        -0.72855333047758    2.16307002623720   -0.07375275962267
H         4.14698971233981    1.41110214894174   -1.70063981164941
H         3.34224259295939    2.57279053869881   -0.59099327557663
H         3.72124810619245    3.19847942239056   -2.08918007385921
H         1.92694657301214    3.80351200428488   -3.16560908193598
H         0.30408579030233    3.07844429551902   -2.84494561746517
H         2.35443311510557    1.95490145444737   -5.00366358796390
H         0.60289577785424    1.51144285124844   -4.67569471084034
H         1.79031714234767   -0.44680685077948   -5.17425463725812
H         2.21615129339973   -2.23665685825760   -2.30080995376274
H         0.91273741994093   -1.36239140258619   -1.65522640477627
H         5.86651236703199   -0.67774831688335   -0.66821004901039
