32
 energy: -49.287670774892 gnorm: 0.133044975080 xtb: 6.4.1 (79825abcba525fcdf90b791dcacef51065a7a4e7)
C         2.37626524892083   -0.81061120796052    1.45723380259462
C         2.52993989209863    0.10336696832116    0.24081289663567
O         1.22069120587199    0.67880041901723    0.11786279474557
C         0.90296875252950    1.49678179739152   -0.91645303347398
N        -0.29836868114032    1.94357266505377   -1.02634345545320
C         1.81246890300787    2.01357613133009   -2.08847950266710
C         3.24983598605183    2.52451690075359   -1.79378408740539
C         1.13283869413513    3.00361315798099   -3.06465871997020
C         1.61780945468693    2.08702016428192   -4.20248944152030
N         1.83675995667758    1.03479687843589   -3.22215096853635
C         2.02463754890962   -0.35479998572274   -3.32322909133168
N         2.07965145518035   -1.04034020138572   -4.42156372024460
C         1.88138412401666   -1.06343662500575   -1.98956223075576
C         2.95018320974755   -0.64175782353859   -1.03579991084537
N         4.07549333143251   -1.26980718443934   -1.20538052432212
O         5.05472017360877   -1.15050114681065   -0.22854794724787
H         3.36587544681830   -1.05911048298553    1.85684602819748
H         1.86337120854483   -1.73062414844604    1.16259567030227
H         1.74362248810287   -0.30085816696866    2.19215207423061
H         3.20800943060331    0.92716025385378    0.49112504049831
H        -0.79285336738636    1.64534892936751   -0.17413333347311
H         3.08373970445641    3.43857028932985   -1.20895329632360
H         3.70194522080382    2.82252181922747   -2.74734015290478
H         4.02397426126285    1.90688653966383   -1.33064477064502
H         1.56775249391002    4.00509113010132   -3.08729478294998
H         0.06851936245277    3.14138931809444   -2.83327868754483
H         2.58067461653191    2.36278574442856   -4.65409325171301
H         0.75291195158007    1.83784243032046   -4.81817640823310
H         1.98401964077842   -0.52901984619487   -5.29592855772866
H         1.97515936079978   -2.13583270820631   -2.21226818585359
H         0.93824025733610   -0.80868538912829   -1.49674362297002
H         5.74191085161294   -1.76711175183243   -0.54676745868508
