32
 energy: -49.290875732156 gnorm: 0.130984899465 xtb: 6.4.1 (79825abcba525fcdf90b791dcacef51065a7a4e7)
C         2.05473641328444   -1.08876881288014    1.30180817608033
C         2.33800788100289   -0.04804382801926    0.21769535815596
O         1.09027336564050    0.54997311384909   -0.16428215999474
C         1.06985475857515    1.63361875196156   -0.97984672013422
N         0.01351686594587    2.36306895627354   -0.89640646825319
C         2.01750360888105    2.02178261711527   -2.17114997257111
C         3.46853326595301    2.28927198296517   -1.68443407739038
C         1.39810698812482    2.99984981479418   -3.19814986601075
C         1.16174150094903    1.80341025908556   -4.13765071585906
N         1.88989716065231    0.95089463329740   -3.21072939894063
C         1.93498394516718   -0.45249626940953   -3.28112371200868
N         1.84733525099813   -1.14157971538473   -4.37511300477786
C         1.98775560244828   -1.20058034431240   -1.96243494557729
C         3.01271288618477   -0.66914452880432   -1.01541563901188
N         4.29718598362023   -0.86761907638921   -1.03163742781709
O         5.12109101471101   -0.33435536286376   -0.04973553646335
H         2.91683447165339   -1.76364125533368    1.34768070296210
H         1.11684308629515   -1.62284766454140    1.12457493323452
H         1.95566782712315   -0.53994135789688    2.24476296370697
H         3.01408618384981    0.71095886955496    0.62745489614231
H        -0.50322278960215    2.11246350759936   -0.04206951537203
H         3.43719332940710    2.97601226944947   -0.82856363827765
H         3.97218379491457    2.82318117702956   -2.49914628375136
H         4.02113129806188    1.37188668012112   -1.46467287012203
H         2.10442968734340    3.74314663206183   -3.57396713392067
H         0.45115641755261    3.43750632676085   -2.85604458672553
H         1.55789550703269    1.81143758586802   -5.16239436027356
H         0.12649121337724    1.48069338388372   -4.25305580211571
H         1.66121575957611   -0.67387276459474   -5.25926093165719
H         2.17496992431354   -2.25016728881005   -2.23028402934542
H         0.94570106414401   -1.20086823196767   -1.62865212532718
H         5.97276072743828   -0.42675186360472   -0.51859042919257
