32
 energy: -49.290158639606 gnorm: 0.118449319353 xtb: 6.4.1 (79825abcba525fcdf90b791dcacef51065a7a4e7)
C         2.39556366110715   -0.71083654151720    1.54535105754090
C         2.53674356249329    0.01114986019130    0.20465883134043
O         1.33296868006037    0.74901767063066   -0.05389400837234
C         0.93007482093545    1.62859164154562   -1.00461817723759
N        -0.22387401046611    2.18872719102410   -0.90684380711314
C         1.87694360316205    2.02724534799844   -2.19307416505906
C         3.29568645699076    2.40348130217989   -1.68361837258042
C         1.22487027991183    2.94224120293064   -3.25730127228642
C         1.42802345642330    1.82125234420033   -4.29272913846777
N         2.04321409307944    0.99490682648937   -3.26566036522793
C         1.96828938848038   -0.40846258870710   -3.30353907270882
N         1.79290346140692   -0.93107503009184   -4.47633355271822
C         1.85364391148243   -1.15352422188438   -1.98706869013576
C         2.93699052335716   -0.84583907419643   -1.00650917273732
N         4.15959669952161   -1.27002142290655   -1.12828719421732
O         4.93587235985967   -0.96899099312916   -0.01738765075813
H         3.34878779753019   -1.16100335639024    1.84448938389699
H         1.60075392396718   -1.45646590170237    1.45256061253182
H         2.14789874499473    0.06636369860048    2.27665931012095
H         3.30847493292976    0.77861106231259    0.33312603765534
H        -0.87130515472595    1.92711620257488   -0.15046613854952
H         3.93665129267001    1.52455997786035   -1.83116499672841
H         3.26141134423797    2.62985308244794   -0.61120991937806
H         3.73426942414768    3.29447173659065   -2.14082335087189
H         1.77957802832212    3.83895136010564   -3.54160873246246
H         0.19247877213324    3.20056425307136   -2.98761330633275
H         2.17672107506644    2.19891125935024   -5.00260771788427
H         0.54753850252772    1.41317466454896   -4.79014900813200
H         1.93313167187475   -0.15405118095788   -5.11795479267129
H         1.89383661305572   -2.19590405129731   -2.33384516115079
H         0.89357549153194   -0.94136098105998   -1.50691861022989
H         5.76974599176837   -1.38430436041785   -0.31042842743366
