32
 energy: -49.291348835350 gnorm: 0.136291699600 xtb: 6.4.1 (79825abcba525fcdf90b791dcacef51065a7a4e7)
C         2.39413074547050   -0.78222597382645    1.46778611725794
C         2.44628386621938    0.15534330606513    0.26076677023427
O         1.19600009650246    0.85013256109638    0.14063821306939
C         0.87940224462266    1.64206564806711   -0.91409307757290
N        -0.30638772804772    2.10737600599752   -1.09380952847711
C         1.88571753639768    1.96724472014608   -2.07577334328424
C         3.34150586155590    2.24355616032784   -1.60858783086775
C         1.36051946155821    2.95312563647533   -3.14684859014454
C         1.61068021004840    1.90808926266860   -4.24926261327606
N         1.70810372416476    0.94894121974196   -3.15989565293738
C         1.97349098563144   -0.43155821452145   -3.14300964056749
N         2.11261671454350   -1.06544482693753   -4.26468814981015
C         1.72587098620448   -1.20492666158912   -1.86162745258737
C         2.80925695356355   -0.65466462176386   -0.99370257584492
N         3.96873011843101   -1.12973733042730   -1.33932426224662
O         5.03964533112473   -0.68969704772927   -0.57327845487055
H         3.40067465179020   -1.16292180584033    1.67445060301523
H         1.79756138901179   -1.68951352209614    1.33652287983307
H         2.15292630902046   -0.24081417752388    2.38913489705454
H         3.31201496194669    0.80102780579524    0.44696836420207
H        -1.01743877158723    1.76174349383821   -0.43452266968244
H         3.45640514926001    2.74231939267541   -0.63743284796057
H         3.81059302140846    2.95309893837306   -2.30067535008977
H         3.98229414462470    1.35853557874609   -1.57138156361333
H         1.91460697132014    3.88869783128436   -3.24839772778523
H         0.29680617623742    3.18351269436472   -3.00286777564200
H         2.51194309534090    1.92822865489744   -4.87729254034224
H         0.73550744780252    1.73235988814963   -4.87568060094389
H         2.18862466801126   -0.47911259838254   -5.09266467845079
H         1.87593320024701   -2.26809485390603   -2.09738118203399
H         0.67765597063547   -1.03763655501615   -1.59601867240228
H         5.76138850248895   -1.23087656554137   -0.94733038700055
