32
 energy: -49.290574280813 gnorm: 0.132423747937 xtb: 6.4.1 (79825abcba525fcdf90b791dcacef51065a7a4e7)
C         2.33539445595621   -0.71855063171241    1.51973472794024
C         2.55641062412797    0.11947966163819    0.25977088197559
O         1.31253741330757    0.79902210744272    0.03311256806427
C         0.94997925422164    1.55405129812955   -1.03381424776235
N        -0.25961639738521    1.98802988910823   -0.97507288671288
C         1.89594540690259    1.99540917781619   -2.20780923043576
C         3.24649707306570    2.47529513845270   -1.60810124664118
C         1.15142698692640    2.96164432908287   -3.16021584316792
C         1.50562980397576    2.00076848523306   -4.30967488002409
N         1.99230420798279    1.02603267862314   -3.34571698769000
C         1.90184903404392   -0.37236342014231   -3.23257796113072
N         2.07479572059749   -1.19009194097340   -4.22290134120439
C         1.74856719510048   -1.09704702868206   -1.90868481569403
C         2.85766159582780   -0.75004924196327   -0.97096994374873
N         4.04177734252254   -1.23027182526437   -1.20926094837607
O         5.16131434259306   -1.06302764269964   -0.40552759695512
H         3.26684788125912   -1.23430708244358    1.77888712060330
H         1.47843836682146   -1.38364766782932    1.37984931920259
H         2.12346775219757   -0.05399702384108    2.36451012048881
H         3.42239710317804    0.75427677696239    0.47924725069137
H        -0.81575061716393    1.79150118312646   -0.13138705605435
H         3.08433372046291    3.09999677412343   -0.72009249820869
H         3.65578329663737    3.08402557842324   -2.42321529121592
H         3.85832709453738    1.63234606936736   -1.27590211469938
H         1.56967376124737    3.97041652884488   -3.16851147012054
H         0.09074898599689    3.13295305487262   -2.93458311958349
H         2.32272949815926    2.38506398726731   -4.93558783883075
H         0.71085424477465    1.57792818306996   -4.92509795601118
H         2.32771898825632   -0.68506566729364   -5.06912005369230
H         1.71498439733999   -2.16261544487533   -2.17675427784817
H         0.78398341763698   -0.75724936803486   -1.51957762350226
H         5.86109934880073   -1.39566106271624   -0.99996790194178
