32
 energy: -49.288579434600 gnorm: 0.125994484688 xtb: 6.4.1 (79825abcba525fcdf90b791dcacef51065a7a4e7)
C         2.13606272843974   -0.78825847651987    1.50724366647464
C         2.40312216546666    0.06343767059812    0.26549299147446
O         1.19588562666539    0.81664156374602    0.07671714201844
C         0.96534511562291    1.60125273007580   -1.00545045301130
N        -0.19272676495486    2.16064386170528   -0.97611314045348
C         1.98838419258597    1.94976779403949   -2.14555624857397
C         3.35482501098383    2.34210346615739   -1.51878499477807
C         1.33626272104437    2.84495436120628   -3.22647020236718
C         1.81924561362970    1.80154378116076   -4.25019867621397
N         2.23825727456887    0.90200915285766   -3.18650539884851
C         1.92581353989947   -0.46578859780479   -3.27596182095547
N         1.89254896131992   -1.20116866817841   -4.34247037508592
C         1.70383863977346   -1.17232222099837   -1.95199350390916
C         2.75593622342301   -0.78707444289290   -0.96483502400626
N         3.98828835857133   -1.08780248038132   -1.24837921124773
O         4.97367016255486   -0.37351739364709   -0.58044168700107
H         2.96535034094472   -1.42364199119231    1.83790966704113
H         1.25319983875883   -1.41894638048565    1.36910743607495
H         1.84948492695612   -0.19088873397687    2.37971856124744
H         3.29717717470439    0.63351686182305    0.54252221485392
H        -0.57905344977626    1.91044691623093   -0.05531578303651
H         3.67033138643655    3.30241506062336   -1.94699754754155
H         4.00241285891554    1.45771673709222   -1.54991301340399
H         3.20349716887852    2.49670397672463   -0.44712556145720
H         1.76625005253309    3.84507878156737   -3.31297202807452
H         0.24181867401720    2.92099607320398   -3.18518451602258
H         2.65569634225675    2.14208251192809   -4.87588672181513
H         1.08722806619676    1.46563216525470   -4.98540026180487
H         2.07937461153287   -0.64235580339126   -5.17188714821659
H         1.62454726637571   -2.24328100738136   -2.18690890231353
H         0.78571413493621   -0.86483731652151   -1.44229834892265
H         5.78067657601220   -0.75417301279910   -0.97736141690852
