32
 energy: -49.288760154864 gnorm: 0.136920909504 xtb: 6.4.1 (79825abcba525fcdf90b791dcacef51065a7a4e7)
C         0.90505703163342   -1.09866718912788    0.50410631180159
C         1.77455990801128    0.09420765714108    0.10452384419208
O         1.18039305246689    0.94099066025042   -0.89061272488762
C         2.08548605709351    1.86570434153501   -1.29750535372616
N         2.74017741767997    2.72974983581767   -0.60489131618540
C         2.12823031704652    1.89024932284994   -2.86769115534790
C         3.37872113448189    2.58740818182737   -3.47115800094156
C         0.79288143154277    2.40636632326947   -3.45545216339804
C         0.63186159507260    1.06691350145877   -4.19702943521130
N         1.77497702109692    0.55826119960976   -3.45491311560641
C         1.97110425738096   -0.62658450107055   -2.72404446466846
N         1.38020823152423   -1.70194687091386   -3.14089997575561
C         3.22024982559510   -0.66900872875711   -1.86428275676245
C         3.13439953055195   -0.41885192453951   -0.39463712685326
N         4.20961539479793   -0.54322437804555    0.32506332556720
O         4.17113887044346   -0.29622390983547    1.69065159802298
H        -0.07704535064245   -0.64840326803477    0.68715678119328
H         1.39732226489717   -1.55818900436180    1.36597078729525
H         0.86723626159226   -1.82447951631001   -0.31562287574715
H         2.05359648813382    0.62853548890184    1.01978456645007
H         2.54704198257364    2.79396343249001    0.40421219602954
H         4.20582577976585    2.56009333645404   -2.74986719566117
H         3.09952875204259    3.63334620502446   -3.64592678150887
H         3.64239031933420    2.05328247815514   -4.38791514729957
H         0.96994341811829    3.24866454964983   -4.12761530256061
H         0.01472582700738    2.59708442273229   -2.70485567461834
H         0.77513457946476    1.15267014313349   -5.28294868537253
H        -0.31334304297437    0.55176655172246   -4.02261762918698
H         0.54114251132262   -1.59372986496011   -3.70602439554562
H         3.78525220951594    0.17072625555729   -2.29328455532033
H         3.80703888299706   -1.54824982987260   -2.14695285488921
H         5.11093979609288   -0.45324000416272    1.90471581483628
