32
 energy: -49.295259714397 gnorm: 0.123276074096 xtb: 6.4.1 (79825abcba525fcdf90b791dcacef51065a7a4e7)
C         2.00605166616587   -1.18984628492109    1.28526296378965
C         2.39225437550991   -0.05366684101793    0.33732015933810
O         1.18855906741585    0.68269633814453    0.07414840711615
C         1.03573476728873    1.57217243277092   -0.93843607294433
N        -0.09669198440451    2.18245129530826   -0.92954954046809
C         1.99549796797465    1.94929952432032   -2.12357011478687
C         3.39214501898943    2.43095047236456   -1.64261339454882
C         1.34264958346821    2.94381425270086   -3.11338112383425
C         1.54815925104016    1.88215793875068   -4.20912276787359
N         2.12110951530607    0.95976203177400   -3.24108842226336
C         1.89649248283610   -0.42802512057077   -3.25048272288445
N         1.78157481319437   -1.13570635563859   -4.32997894262501
C         1.86064314544064   -1.15094940569842   -1.91727229810537
C         2.91117739739900   -0.67069217008578   -0.97094369113245
N         4.13983251212171   -0.81477302285552   -1.36990956572028
O         5.07693813742019   -0.41358214457474   -0.42746595953147
H         2.82662378260454   -1.87261693885990    1.53276205147714
H         1.12489683069013   -1.74892540777532    0.95770773915681
H         1.66078607174583   -0.69324505264897    2.19870085334719
H         3.19750941929311    0.51091012709431    0.82093881423099
H        -0.74311507856640    2.06778722104135   -0.13664102334041
H         3.67386129159484    2.08741667485603   -0.63875628875346
H         3.53629086255017    3.49986437825590   -1.44481579313590
H         4.13357513111530    2.00179242031020   -2.32184835027979
H         1.93805939192856    3.85512414105186   -3.20068508481896
H         0.31633654598361    3.23481958266814   -2.85397396794136
H         2.26731878865888    2.14930557439805   -4.99559824669319
H         0.65084118243001    1.42634451901983   -4.62895855806753
H         1.91645784101657   -0.64664597676031   -5.21187141752134
H         1.88376695901017   -2.23618769376579   -2.09090478644300
H         0.92807192163685   -0.90186626635967   -1.40194984175677
H         5.94465387648015   -0.55179729733045   -0.85369276698574
