32
 energy: -49.291484189218 gnorm: 0.114709509570 xtb: 6.4.1 (79825abcba525fcdf90b791dcacef51065a7a4e7)
C         1.91001060048449   -0.38432706147449    1.44741065206365
C         2.43040194273674    0.30807606886321    0.18708427339470
O         1.19454958350576    0.96441476188031   -0.13269842657998
C         1.02594685991855    1.85963661688806   -1.13768663983274
N        -0.11916210760770    2.40496193273442   -1.35275726479414
C         2.11176731451662    1.89784981358377   -2.27234372154321
C         3.57311061358917    2.09449080346868   -1.78271315917217
C         1.69624011617852    2.80245104976814   -3.45726150844823
C         1.41793937362753    1.53588930305585   -4.28694104993703
N         1.84514593009258    0.72113121478566   -3.16006904817234
C         1.73475577175164   -0.67805854112822   -3.07897495089561
N         1.42671774628846   -1.53653833311094   -3.99954862808968
C         1.95335495661518   -1.33044309519745   -1.72695294550272
C         2.97751156916450   -0.67242032803460   -0.86213139864772
N         4.25293301725529   -0.88750175045387   -0.99084251709463
O         5.12926964628106   -0.31872636175409   -0.07659436301199
H         2.68334137542615   -0.78973605534691    2.10950824604032
H         1.26955592962456   -1.22927813665007    1.17876361391620
H         1.35499082978849    0.27303373456817    2.12565819419180
H         3.24054347306106    1.00429243202368    0.43208084704305
H        -0.84425477135712    2.25852736930240   -0.63685773561427
H         4.01390156437000    2.87660948947902   -2.41445861762274
H         4.13633731461117    1.16828548134174   -1.94823731580670
H         3.61871382075803    2.38869386357064   -0.73075295120331
H         2.41623494322867    3.48804419331037   -3.90913541042531
H         0.77543034027193    3.35436096123158   -3.22748022534443
H         2.02951547644249    1.39973896699380   -5.18945959863872
H         0.37911455753986    1.29887580134553   -4.51905153795870
H         1.32509341025382   -1.02918118524886   -4.87554465769339
H         2.22590919005141   -2.38636208187553   -1.86542449683751
H         0.96734226437076   -1.31733049875213   -1.25272119506544
H         5.97054807159430   -0.81221796222304   -0.12578759150258
