32
 energy: -49.276125218219 gnorm: 0.121996249949 xtb: 6.4.1 (79825abcba525fcdf90b791dcacef51065a7a4e7)
C         1.03931115905819   -0.08776110272242    0.99941609915242
C         2.17917633390617    0.44624088649867    0.13096860019507
O         1.47906520250957    1.25322941340770   -0.82766918810528
C         2.15700770325197    2.21062345201588   -1.50858103681044
N         2.79117143514270    3.18156480283514   -0.95178768934367
C         2.01762818563843    2.08098804850464   -3.06796583821283
C         2.65959212136418    3.23480518341090   -3.88681765009221
C         0.52088817454313    1.92573799389927   -3.42943942820216
C         0.83923586934330    0.50869630845612   -3.93997415702230
N         2.20848037284926    0.65058884648128   -3.46964160718039
C         2.68528765198326   -0.44005281636744   -2.72154414496712
N         2.05708572824878   -1.57058033569111   -2.64029910721958
C         3.81575893616684   -0.26010166464449   -1.72605080915626
C         3.12471495637508   -0.61616303437431   -0.45110549081196
N         3.57560979127050   -1.68933226897876    0.12727852351572
O         3.09308991309049   -2.19315002030294    1.32755484535630
H         0.47915183087386   -0.87299610771617    0.47941833637555
H         0.31476676198678    0.72611216317014    1.09397537361192
H         1.42452966058766   -0.47843418764394    1.94766244465805
H         2.83664143628580    1.14670820376372    0.65837263447068
H         2.79369110599579    3.23317879446310    0.07633887103345
H         3.25451587876694    3.86243234184429   -3.21060874210288
H         1.82368495169198    3.83334812275264   -4.26824183994851
H         3.27892237989080    2.92295741353502   -4.73206102153321
H         0.23109855834701    2.74551949115208   -4.09019718180130
H        -0.17154183045304    1.80436095206428   -2.58617023797004
H         0.80030220241851    0.40335767432269   -5.03290138278872
H         0.26449302575465   -0.30305465421074   -3.49282908491938
H         1.19219238488737   -1.59837857228656   -3.17536413697992
H         4.24106738698905    0.75331440039063   -1.70312301988176
H         4.57528276720180   -1.00887886217833   -1.97047867202573
H         3.30777021172997   -3.14025041922665    1.22451831684799
