32
 energy: -49.291454485156 gnorm: 0.115207720650 xtb: 6.4.1 (79825abcba525fcdf90b791dcacef51065a7a4e7)
C         2.10248674277109   -0.99817545703545    1.42796965909429
C         2.39404611489056    0.02261018187084    0.32722372305895
O         1.19918113489158    0.76149856069136    0.03275109348122
C         0.95089973004310    1.55259971602019   -1.04073185400639
N        -0.28012943964816    1.87616668120725   -1.22722906073516
C         2.03239944344790    1.93069712255700   -2.11558704921513
C         3.38182750486006    2.40127958702540   -1.50605769052152
C         1.47793719143080    3.03846394501027   -3.04317569280815
C         1.49037499145573    1.96223941808171   -4.14389553494754
N         1.99332206702385    0.94043934296100   -3.23882894493989
C         1.90731769060851   -0.46241345003593   -3.27201783864093
N         1.69120144914886   -1.16428808065441   -4.33972409157911
C         1.94212658167147   -1.14772125188801   -1.91905950377069
C         2.94649614155776   -0.71629318973644   -0.90174999592658
N         4.17773769110708   -0.94363856629980   -1.25086996555573
O         5.25616756993374   -0.47102759160199   -0.51537769851303
H         2.98674634001339   -1.63154344897070    1.56101142968085
H         1.28579528584292   -1.67342544166127    1.15714083327455
H         1.89540205081969   -0.53955091714549    2.40109316034063
H         3.13606012009916    0.70112482232787    0.76323167308056
H        -1.00308888416905    1.63356049515750   -0.53571878392973
H         3.34028995520234    3.48035461304485   -1.30862329441680
H         4.16965798527306    2.20527453845874   -2.24320354760693
H         3.62450882044247    1.93123861024042   -0.54928048240144
H         2.16111836552670    3.86975727087438   -3.22981820197924
H         0.50072953272872    3.41893635733588   -2.71821328595171
H         2.18353727452109    2.15180606117545   -4.97497466012407
H         0.50509291355608    1.69100733577942   -4.52450039359245
H         1.51205804493273   -0.56677495415100   -5.14346131644015
H         1.84411578589032   -2.22472618025526   -2.11623797540926
H         0.93124472013037   -1.02117311949035   -1.51982003482423
H         5.96084674992231   -0.53272494557912   -1.18867110641358
