32
 energy: -49.290159828172 gnorm: 0.123472005519 xtb: 6.4.1 (79825abcba525fcdf90b791dcacef51065a7a4e7)
C         1.97580515935952   -1.07340546299651    1.29110860909025
C         2.40194123159123   -0.04623211232123    0.24135875117839
O         1.22508727361431    0.76454412537972    0.10708614245325
C         1.03403551292381    1.66439601518131   -0.88971680158751
N         0.23145606586572    2.63524714935517   -0.62851972261766
C         1.85063087887768    1.92944748848318   -2.20532793271341
C         3.22382846255161    2.48352137530599   -1.73494455727779
C         1.22142704751085    2.90834584838437   -3.22555189437593
C         1.20889341570413    1.75433520675930   -4.24442403968200
N         1.95660373715261    0.92529761163696   -3.31179194678942
C         2.03182673525029   -0.47853777838007   -3.30274220637719
N         1.96835900843807   -1.17568477113913   -4.39328738704370
C         2.07345771571467   -1.29970335922415   -2.02786627337256
C         2.99451660881987   -0.76032644433351   -0.98358178992009
N         4.23679595527930   -1.11558415564042   -1.12521659172205
O         5.09405965801719   -0.56971618619331   -0.17946391615307
H         2.79279379440636   -1.69725326709711    1.67073164330666
H         1.20232749198169   -1.77083236031695    0.95700719845653
H         1.59062062075586   -0.45139762311851    2.10654040228577
H         3.18711208613178    0.58002897153352    0.67996292589931
H        -0.23351909468134    2.50500917155846    0.28062864696191
H         3.03073973578719    3.42302796537602   -1.20094761426913
H         3.76762829300739    2.79237998730305   -2.63570366292439
H         3.92943723905044    1.87686083491022   -1.16106773553894
H         1.82802850943002    3.76877977726536   -3.51591141471818
H         0.26202483254804    3.26931770146615   -2.83243443149623
H         1.75569824456808    2.05971808810467   -5.14711321460488
H         0.21199248821415    1.45170084847569   -4.56661754262410
H         1.74910234745873   -0.74363799369125   -5.28792134247731
H         2.44592219448044   -2.27272173646613   -2.37848079189023
H         1.02007503875002   -1.33466317446451   -1.73383997436543
H         6.02905246565406   -0.63796184819483   -0.45302250515072
