32
 energy: -49.283161367037 gnorm: 0.124583166385 xtb: 6.4.1 (79825abcba525fcdf90b791dcacef51065a7a4e7)
C         1.97331047259572   -1.18238241507388    1.20462782038356
C         2.30767744308415   -0.08447487074502    0.19395993944826
O         1.09409018601565    0.65612941921239   -0.00373616523805
C         0.96982927847643    1.63226713409400   -0.93731246952798
N         0.09425797288362    2.56441606531114   -0.79809011016291
C         2.01620269421223    1.89550451920082   -2.07911880405589
C         3.41666008129489    2.30616680766842   -1.54619706704734
C         1.62253081013289    2.96053545906402   -3.13065480005184
C         1.23161734589435    1.83514191466680   -4.10567999810475
N         1.93601237315647    0.92426254249659   -3.21669006880885
C         1.91264887869581   -0.47901919391059   -3.29884061657014
N         1.68268859753627   -1.22707103199178   -4.33173344085491
C         2.05993688650141   -1.33237727580893   -2.05327209944710
C         2.96624184159456   -0.68921488040281   -1.05589529054602
N         4.24373221020498   -0.80302758683253   -1.26706220416576
O         5.08211456959748   -0.22774867838055   -0.32181609032147
H         2.89606396424191   -1.68726416703003    1.51185830838901
H         1.20398168763379   -1.83017941591795    0.77475807133134
H         1.44506958293458   -0.80500959611851    2.08709096739326
H         3.01295174991368    0.65079146586402    0.59774380532119
H        -0.36549057650298    2.38719033567300    0.10575550950785
H         3.33567583484061    3.38362595968602   -1.35220749693114
H         4.20335294098054    2.01369129220162   -2.25192454673539
H         3.63205708620740    1.85455350891482   -0.57413486427516
H         2.44930633941709    3.49617956472672   -3.60198074946438
H         0.83200045025968    3.67544405036404   -2.86747789586749
H         1.40370726479095    1.92326889353412   -5.18721624824819
H         0.18307453027089    1.56171512724303   -3.98319149632038
H         1.55919098074109   -0.66266935636884   -5.16917413088385
H         2.40622371997533   -2.32637263155509   -2.37026381665909
H         1.05519401966252   -1.53024426687961   -1.66774759660881
H         6.03487401609945   -0.22375327430972   -0.53614479924007
