32
 energy: -49.290901003605 gnorm: 0.112165125634 xtb: 6.4.1 (79825abcba525fcdf90b791dcacef51065a7a4e7)
C         1.06842687136416   -0.74905030228647    0.80152011221273
C         2.02850050433218    0.30459509189917    0.24767733622021
O         1.38432991563766    0.97221835923538   -0.84762898250976
C         1.89836330556006    2.09915170369914   -1.40047729547491
N         2.46923112602749    3.03925406981671   -0.73322391583704
C         1.92002428593796    2.05392603649294   -2.97063601877067
C         3.17743210571801    2.80917788111563   -3.48293497708938
C         0.64556319284237    2.33552643284668   -3.80216865692337
C         0.66995345624850    0.86605302216850   -4.26048198815626
N         1.82811151895841    0.62594260008539   -3.41360917439756
C         2.19868607126890   -0.56045537579418   -2.75662474766797
N         1.63496231023859   -1.71069348693058   -2.95283551193107
C         3.42237539680380   -0.49749060755478   -1.86221178456390
C         3.21375427484642   -0.44164986470754   -0.38465770705657
N         4.04221341317344   -1.16207813419821    0.31116195591428
O         3.77740187201411   -1.14097065581491    1.67378822225338
H         0.12172395510330   -0.32549478816687    1.15524949630300
H         1.47933596826541   -1.31793111864350    1.64046234186864
H         0.87731497031922   -1.34320134710488   -0.09884129858062
H         2.37197041899045    0.89999655305288    1.10125530808664
H         2.48997682387079    2.85723280584151    0.27976792141883
H         4.09053996166337    2.48892358095471   -2.96449515682588
H         3.13644808885359    3.89893945667479   -3.36796161136581
H         3.27328978427382    2.78444411431854   -4.57172095938261
H         0.81637267778914    3.05432318986078   -4.60639242739199
H        -0.21044708696292    2.56228963322272   -3.15323146610781
H         0.90655278420387    0.75539249591168   -5.32766378000204
H        -0.13021364988773    0.17667802910971   -3.98900014191582
H         1.01003236459528   -1.78363975061672   -3.75236613736163
H         4.02410094989640    0.34215665998239   -2.23816910335468
H         4.09241437886267   -1.34397548788603   -2.04053682150573
H         4.63114113482693   -1.18061890813285    2.14629283586215
