32
 energy: -49.285004758417 gnorm: 0.134538772506 xtb: 6.4.1 (79825abcba525fcdf90b791dcacef51065a7a4e7)
C         2.30631380663607   -0.16381403170319    1.67452374342443
C         2.51330834387074    0.51677249794752    0.32078556181005
O         1.27381570102666    1.19498662784951    0.06769252541701
C         0.99642722926559    1.68711563453116   -1.16548020765782
N        -0.23404507824401    1.94174011289299   -1.44118634611399
C         1.96325819573304    1.86368266961589   -2.39103105891859
C         3.33329826408301    2.42231134769767   -1.91684315209357
C         1.34829097381884    2.63744952649822   -3.58186965056232
C         1.59322106115741    1.42459478383760   -4.49783401797136
N         2.02822157130404    0.69025731881476   -3.31982734985613
C         1.99130767300373   -0.68310631792784   -3.02149215866437
N         2.44216618109922   -1.57495207650304   -3.84651859124518
C         1.52527811062452   -1.05667923274325   -1.62699783107757
C         2.61426939479499   -0.62781530300314   -0.69964635278019
N         3.74004933904913   -1.25119905266119   -0.88278201648448
O         4.84401206576382   -0.79838296210064   -0.17317303292196
H         2.04735063705701    0.54685623307596    2.46740205459327
H         3.29970394243580   -0.57280479476002    1.87994606952609
H         1.57100148144478   -0.97027824727230    1.57901905364994
H         3.35874154515995    1.21167694942054    0.37926928034241
H        -0.78910419442008    1.96997588599315   -0.57468377429378
H         3.82436923600129    2.94754317316080   -2.74635472298960
H         4.13038278508077    1.75978277343359   -1.55880545209091
H         3.13844548675484    3.16800968856229   -1.14145825011642
H         1.85656563415320    3.59187995023965   -3.73464388659816
H         0.30940723177953    2.92683417708978   -3.37626877582468
H         2.41208337167535    1.76114187008254   -5.14845106490821
H         0.74902856861385    1.01640638663430   -5.05454662859609
H         2.77929308209650   -1.17025479967518   -4.71696295289046
H         1.52525708660603   -2.15397038927755   -1.56083733155032
H         0.53478739455593   -0.62629240516912   -1.45097500486109
H         5.58026445777713   -1.08929997989157   -0.74501481866889
