32
 energy: -49.286461045143 gnorm: 0.125798358413 xtb: 6.4.1 (79825abcba525fcdf90b791dcacef51065a7a4e7)
C         2.20097208861911   -0.40667848485145    1.60686653996983
C         2.47291397497973    0.40062758853835    0.33684436866891
O         1.37361064097629    1.27352820125213    0.03692908659462
C         0.99139566573411    1.81278351763377   -1.14753945457986
N        -0.23926345423547    2.15712685177785   -1.29523975999172
C         2.02635427347374    1.87688818978290   -2.32765139659784
C         3.41966615410938    2.42510770829369   -1.91284139187871
C         1.42386778209485    2.59673317561826   -3.55802923191738
C         1.88099938845647    1.40236032955915   -4.41506033048181
N         2.14331035257897    0.65928414124941   -3.19227357796100
C         1.69116375688889   -0.66403900975155   -3.04779683407760
N         1.58605940863725   -1.46502176778766   -4.06106411356917
C         1.68457997451750   -1.15138887844863   -1.61120312673733
C         2.80104182240359   -0.49415427088709   -0.86866514168945
N         3.94337438227089   -1.09665815709039   -1.01560674832090
O         4.96704087204400   -0.66181513232121   -0.18474004244322
H         2.94345046618288   -1.21060218362338    1.66345900201472
H         1.23662795832656   -0.90955813355055    1.49090021348987
H         2.29937821136231    0.25515295933857    2.47432562360284
H         3.33317076431406    1.01574532745812    0.62434786352471
H        -0.72441326316279    2.05758639072026   -0.39277871064144
H         4.17534281848464    1.75682517835747   -2.34580773975202
H         3.49102945041497    2.51374629414582   -0.82218592986610
H         3.67893773242153    3.39692392179138   -2.34133510269156
H         1.77881400020003    3.62278924082425   -3.67568409333496
H         0.34570327517957    2.65588147969334   -3.35964222086702
H         2.80184054464146    1.68471697641758   -4.94367007947734
H         1.13424981619100    0.97025486686365   -5.08203680830075
H         1.42604985812979   -0.99236372620665   -4.94768643489293
H         1.70512178695050   -2.24970454990718   -1.56990171721296
H         0.71855249268176   -0.98694536432425   -1.12433768850343
H         5.76851894713009   -1.02808503958560   -0.60567064681932
