32
 energy: -49.287251284613 gnorm: 0.130266712513 xtb: 6.4.1 (79825abcba525fcdf90b791dcacef51065a7a4e7)
C         2.25558605856093   -0.73961201353241    1.35575574952400
C         2.60322344332385    0.22958788071431    0.22506939350061
O         1.45936988026044    1.09652682319298    0.20536184781653
C         0.95398618230809    1.56859775970015   -0.96150861408390
N        -0.29235754038090    1.84717424103540   -1.11620855411336
C         1.89213984634753    1.95233866676491   -2.16172674801533
C         3.24481148309175    2.52261637847189   -1.65281342126396
C         1.28178157681945    2.91836600885408   -3.20539832074610
C         1.68990761619714    1.88806621674611   -4.27400188476039
N         2.12656021738525    0.95084893917277   -3.25070575232856
C         1.92670339059737   -0.43923127334069   -3.31573234281032
N         1.60044279441748   -1.20425594868407   -4.30952414060910
C         1.88498786312030   -1.20612743900152   -2.00749505793150
C         2.84470151043976   -0.67158279625084   -0.99605115388955
N         4.02712425251904   -1.19497270936891   -1.12820979175302
O         4.99239172653469   -0.87046155398269   -0.18466740600334
H         3.03856357306964   -1.50475931098798    1.40335816184571
H         1.23955695990311   -1.08202290677409    1.13957205843425
H         2.26438958824183   -0.22399598423479    2.32232312899772
H         3.59036395710254    0.66328681948689    0.42135662305905
H        -0.77897442218633    1.59455851861583   -0.24494286741079
H         3.94182867103911    1.72227299049204   -1.37223166575406
H         3.12941758665210    3.17900961188620   -0.78200286198567
H         3.66054974993596    3.25472070183928   -2.35026616201996
H         1.67999820054783    3.92640949049392   -3.07163586612315
H         0.19503246630211    2.93589891962337   -3.05059651791491
H         2.50038164905580    2.30041112932558   -4.89060993681399
H         0.87625352167762    1.50516182203205   -4.89089645715237
H         1.54518347570146   -0.70571842083806   -5.19468771950222
H         2.01345285846757   -2.28971119461554   -2.14079198559891
H         0.92605469225741   -0.97543825064542   -1.53366133349597
H         5.79225778716094   -1.38459185568113   -0.40735023148479
