32
 energy: -49.293009327183 gnorm: 0.111298712104 xtb: 6.4.1 (79825abcba525fcdf90b791dcacef51065a7a4e7)
C         2.29024070753256   -0.33020836115731    1.60134044417963
C         2.47634265470080    0.39028121094244    0.26533421417011
O         1.34355920870210    1.25723488611266    0.10544217880584
C         0.98606851305004    1.71956870374921   -1.11860771568712
N        -0.20546226846619    2.16900801442703   -1.30072933174020
C         2.00666287867957    1.87868136171115   -2.30223908157918
C         3.42181509091905    2.40630692141681   -1.93770450470952
C         1.36580303965448    2.71335638229260   -3.43696929872783
C         1.56732480761241    1.52188872448331   -4.39079941886337
N         2.19503488377060    0.78307682723069   -3.30621943461843
C         1.94099508885361   -0.58801313564270   -3.12713754703165
N         1.87302066685065   -1.45947871589448   -4.08382877192379
C         1.68884842008765   -1.17298758546429   -1.75033630452624
C         2.74573478603424   -0.64730177585472   -0.83575844323884
N         3.87526818683609   -1.28608094010673   -0.91087106869260
O         4.89179995963498   -0.87981893755823   -0.05709395729262
H         3.31355020174420   -0.61357014246428    1.87210592106165
H         1.50157990196216   -1.08465527925851    1.67289259536203
H         2.00097457168455    0.39919275344722    2.36585925045590
H         3.35655977725706    1.00441384066492    0.48698429978518
H        -0.76860839389670    2.18211916654215   -0.43909766973907
H         4.07344679635495    1.69855389884700   -1.40896033995766
H         3.37114494737913    3.30137391547243   -1.30622492044008
H         3.86404333691724    2.74427863412108   -2.87869582735584
H         1.88534172840079    3.57803971945634   -3.85532656691677
H         0.32462380683083    2.98130762036761   -3.21461245872855
H         2.12186220940324    1.69641066878051   -5.32307209090248
H         0.63928392345742    1.06447488298986   -4.73535764472884
H         1.84942243362863   -1.08719993640555   -5.03038011957120
H         1.80412640033856   -2.25871250518248   -1.87815444348104
H         0.68662427743958   -0.96551437787431   -1.36330872833062
H         5.75334329477021   -1.26244246898625   -0.31213441764690
