32
 energy: -49.295733778611 gnorm: 0.117801455113 xtb: 6.4.1 (79825abcba525fcdf90b791dcacef51065a7a4e7)
C         1.91645307603631   -1.26014389760983    1.14717715359161
C         2.35493361588346   -0.11833967080360    0.22920670879889
O         1.15180133938071    0.60350310497278   -0.07375898832847
C         0.99125095742025    1.59225032407955   -0.98833693526171
N        -0.07831559435911    2.30434177629552   -0.92618594445019
C         2.06865342272605    1.93859385265519   -2.07790704208648
C         3.47211548380597    2.35028319749131   -1.55375429796838
C         1.51003613474049    3.00527289888731   -3.05008960162942
C         1.46068089144868    1.88161466057491   -4.10125767886340
N         2.12653827535610    0.95119547350190   -3.20285310253707
C         1.81526191322072   -0.41893834613623   -3.25117035176206
N         1.42910993704800   -1.00936467116926   -4.33819117816864
C         2.00859747756448   -1.29836026993744   -2.03027185856257
C         2.97012704676830   -0.72947258742619   -1.03949705388111
N         4.25780919153249   -0.69179597425895   -1.21264899790437
O         5.09787588851174   -0.29697593359699   -0.18030889228107
H         2.58565746250958   -2.12001666608792    1.03075347051895
H         0.90200220410443   -1.53813014669993    0.84732917807525
H         2.00603644364946   -1.09484074185479    2.22645449239615
H         3.05661026679218    0.47326034295247    0.82814671561493
H        -0.67791262299333    1.96073844706655   -0.16320839390509
H         4.21338744867863    2.25932639243860   -2.35833577380133
H         3.83889783798194    1.78530808259485   -0.68844933772724
H         3.46198829281187    3.39695735583472   -1.23811841007459
H         2.20169214313125    3.80921943100792   -3.31067062494383
H         0.52906618464581    3.39289854031798   -2.74555890647322
H         2.11532011669840    2.16383556565043   -4.93726056423196
H         0.56395116726322    1.50196735730683   -4.59212568850116
H         1.42365811860053   -0.44236797091407   -5.18293542221430
H         2.29027868057903   -2.29560793698865   -2.39712042865061
H         1.05784498623213   -1.41503438126351   -1.50136206674977
H         5.92606155740521   -0.04665397396500   -0.63324457976366
