32
 energy: -49.284587518476 gnorm: 0.127695555760 xtb: 6.4.1 (79825abcba525fcdf90b791dcacef51065a7a4e7)
C         1.93951826793273   -1.20958629175333    1.23167108535345
C         2.32137508948919   -0.09123278297198    0.26104108805802
O         1.14179202266778    0.67967655071268   -0.01218966542766
C         0.92476900839596    1.60883997044324   -0.97624705251594
N        -0.12071020420766    2.35573949189050   -1.03968126021807
C         2.05504576450507    1.88170701135369   -2.03262338586411
C         3.39330344975931    2.35062231469406   -1.39771018110253
C         1.51338413532657    2.94358369879204   -3.01954637145817
C         1.56742625673926    1.84980797718659   -4.10155017122648
N         2.14206563846152    0.90040293791527   -3.16102034798355
C         1.88136659675372   -0.48109092567997   -3.16324095323871
N         1.54374906118939   -1.02590312843880   -4.28952908050877
C         1.97249428694099   -1.36743224426687   -1.93545859901268
C         2.93807608724913   -0.72004227178656   -0.99825796560587
N         4.18949838497185   -0.75545838877150   -1.34784964568005
O         5.18119336169436   -0.07362237727998   -0.65577903321586
H         2.56549511371805   -2.08300938365808    1.01706621573855
H         0.88100201719511   -1.46416152438283    1.12664476834694
H         2.16080766694946   -0.94948805295596    2.27261767026708
H         3.08370168870016    0.52410382728087    0.75225268795978
H        -0.75692036973113    2.06364361827446   -0.28494209119878
H         3.36688149376533    3.42988219849435   -1.19869108454836
H         4.17957826246283    2.11652932432517   -2.12534418810557
H         3.64938032096136    1.93726975635546   -0.41851681030792
H         2.15997850615040    3.80653800121776   -3.19230667406377
H         0.44760170444642    3.14981798949486   -2.85562609595496
H         2.17080610258372    1.86716488521640   -5.01955533322863
H         0.59703792847971    1.50169014812245   -4.45703314648886
H         1.61787460252441   -0.26781960357956   -4.96400858558840
H         2.18505307186621   -2.34425627047909   -2.39268793524101
H         0.99950025946539   -1.59877709187964   -1.49155445250656
H         6.00961173220969   -0.28438551665985   -1.12801332252510
