32
 energy: -49.290712345694 gnorm: 0.118405514919 xtb: 6.4.1 (79825abcba525fcdf90b791dcacef51065a7a4e7)
C         2.16498506415225   -0.84214190474461    1.40510890282036
C         2.48151416826612    0.00628131754151    0.17277811381557
O         1.21258164260921    0.64457791800084   -0.03400724586954
C         0.97322414365929    1.53186059993265   -1.03164833950827
N        -0.24344043445534    1.93732877758537   -1.13280398297444
C         2.02278019868067    2.01921886683644   -2.09411102532593
C         3.43062113619746    2.47254009795271   -1.61828149797457
C         1.25818528507287    3.03462015860126   -2.97691974470196
C         1.44971106621346    2.02977919306175   -4.12740251842973
N         2.08140042670272    1.06153685157882   -3.24442346197031
C         1.95002997365411   -0.33779354874052   -3.27774700942329
N         1.81548505735227   -0.93465133472466   -4.42010830622527
C         1.89731186294676   -1.17672182853938   -2.01490305791760
C         2.96769299800187   -0.79058797605591   -1.04795326757355
N         4.15257023228791   -1.31963947241740   -1.12343095582816
O         5.06354778252613   -0.85637987151409   -0.18383984222364
H         2.81313280887728   -1.69730103703480    1.62731942972714
H         1.13142820844459   -1.18295009510428    1.29599548430988
H         2.15752875286607   -0.15574402149019    2.25891932648910
H         3.22756590318253    0.75466298099574    0.46329752719605
H        -0.79094799302891    1.46947209123155   -0.39723604897373
H         3.71328560828070    3.12200738294832   -2.45697194908121
H         4.09725128868823    1.60280093911203   -1.57782297014955
H         3.40152576142297    3.01904508493684   -0.67184548617113
H         1.75223496556800    3.99108292275910   -3.16053462674945
H         0.24147492600330    3.09465668894730   -2.56705355620366
H         2.15458057145620    2.50752523575213   -4.82167888639419
H         0.57665416497576    1.69183351114506   -4.68666277549485
H         1.86357105737145   -0.25670562228201   -5.17719824332787
H         1.84349594651422   -2.14562938354810   -2.53137869510914
H         0.93204346282030   -0.97454676417074   -1.54090846231473
H         5.94182144021601   -1.15602746738935   -0.48806019459042
