32
 energy: -49.290818855641 gnorm: 0.122457568624 xtb: 6.4.1 (79825abcba525fcdf90b791dcacef51065a7a4e7)
C         0.74534046814342   -1.25144146576230    0.30865883165309
C         1.72092250641456   -0.08015597300215    0.18625872293418
O         1.18380506867177    0.85870044953997   -0.75736513545171
C         2.00199803364338    1.86374074285023   -1.15774573884452
N         2.66632721066986    2.68294175987947   -0.42120922360311
C         2.17734719158161    1.89440687327329   -2.71858693560994
C         3.59903577077487    2.36801906314759   -3.12898074551476
C         1.00773486301818    2.47519632408692   -3.54906090443740
C         0.55835529446174    1.05478686865591   -3.93699528270433
N         1.77520946657702    0.57421881464643   -3.30099453725406
C         1.99591075567019   -0.72732381570053   -2.81749487642597
N         1.46567088159406   -1.75515341535950   -3.40208263970934
C         3.10571899031959   -1.03789062625357   -1.83097137975296
C         3.06733111675812   -0.41759553818179   -0.47319106677087
N         4.19008087488828    0.06411858494227   -0.02944461590371
O         4.20067673334813    0.54501255573600    1.27284173192577
H        -0.16106450078135   -0.84872538941242    0.77451283856092
H         1.16629619614271   -2.00954641176266    0.97526883609694
H         0.51561695138122   -1.78977582325441   -0.61741519933936
H         1.89225724695111    0.26485207108062    1.21226247211503
H         2.60997322431738    2.59818337172493    0.60317099235643
H         4.07569203986843    1.42846026212270   -3.43742310560848
H         4.12455749326149    2.86332151500689   -2.30376485913872
H         3.58924171339737    3.00898700033309   -4.01459891935274
H         1.27190088532742    3.11234600861601   -4.39574686885721
H         0.35534606241038    3.10354532412537   -2.92868922999928
H         0.31882171872925    0.75471692058431   -4.96640465670873
H        -0.27651820760851    0.68218308115849   -3.34255409450338
H         0.88430636856756   -1.65794909556009   -4.23134401887701
H         4.05473213816460   -0.73517487090704   -2.29590395082358
H         3.04011173653816   -2.13012554652693   -1.82827310208462
H         4.98927491175515    1.12104253196357    1.27045377487221
