32
 energy: -49.293226865359 gnorm: 0.112900025417 xtb: 6.4.1 (79825abcba525fcdf90b791dcacef51065a7a4e7)
C         1.98293791818052   -1.12264129049269    1.21776607730825
C         2.31006411193619   -0.01288293837691    0.21772776521080
O         1.08854097168255    0.61249065151764   -0.20317784826334
C         0.98966300531589    1.58411822739299   -1.14446063858147
N        -0.11835337583662    2.23219322563695   -1.22936105770948
C         2.07424672447612    2.03204661718755   -2.18894674702580
C         3.55383245413198    2.30444703585800   -1.80093382114503
C         1.50460368671623    3.06534193601171   -3.19034775364077
C         1.16830385382789    1.87268131849980   -4.10383621830270
N         1.95432434535593    0.98873274717867   -3.25708749618452
C         1.73590741414038   -0.39603363428316   -3.15120874957463
N         0.97574068526020   -1.01573406856603   -3.99823222867065
C         2.48566584391218   -1.22650157725934   -2.12673818455751
C         3.13610181320149   -0.61471654081892   -0.92988436107791
N         4.40768263919370   -0.86910008972411   -0.84101591040751
O         5.22814837096296   -0.44547699699759    0.19566169311299
H         2.94040479357312   -1.65281179735015    1.27204843564977
H         1.28948455900059   -1.88516107939575    0.85173092457330
H         1.68806781103356   -0.85407309756930    2.23811534172703
H         2.91196635705242    0.77323870299434    0.68761739998930
H        -0.80709282111467    1.83400743177184   -0.57606125300779
H         3.63321130956730    3.38215824213083   -1.60768225369469
H         4.22389741605331    1.96666818519464   -2.60055701010494
H         3.85120267601654    1.82804243894765   -0.86292264280921
H         2.23902607988146    3.70077683040357   -3.68981424159770
H         0.64189128680121    3.67652556678043   -2.89458348229977
H         1.54658085334626    1.88612323061972   -5.13525650133727
H         0.12731570793912    1.54935741943448   -4.07200837328063
H         0.62127577313334   -0.33037113855580   -4.66136125250115
H         3.17675261774596   -1.88850463120679   -2.66764121744665
H         1.68383628021132   -1.88194721552322   -1.77353983756550
H         6.14400957056995   -0.62152815258328   -0.09400634804325
