32
 energy: -49.290712961969 gnorm: 0.120691277193 xtb: 6.4.1 (79825abcba525fcdf90b791dcacef51065a7a4e7)
C         2.27383400147459   -0.66578288845855    1.47084404119500
C         2.36253430322422    0.19935861282203    0.21294330523168
O         1.11964987357597    0.90621920623143    0.08661480402952
C         0.87348136503757    1.77290673285841   -0.92733989283593
N        -0.29262701929385    2.30186955112408   -1.05102972755336
C         1.90927108846127    1.95139342573229   -2.09489935594814
C         3.38885080172499    2.30037775581959   -1.77398846847495
C         1.56287814936228    2.84304988379363   -3.31143422719661
C         1.75603468829403    1.66567642580625   -4.28430646715528
N         1.83685192136887    0.83600225338338   -3.09212945178643
C         1.79113884980176   -0.56858589165915   -3.13132994999014
N         1.80939147317118   -1.28087752418763   -4.21375239583709
C         1.74958415765292   -1.29040584472556   -1.79768686209421
C         2.81471683815808   -0.77242424251894   -0.88829449290007
N         4.05112370061462   -1.01428777377186   -1.20817970285249
O         5.06287346331725   -0.47691340753517   -0.42401630977476
H         3.18962736400726   -1.23505760236734    1.66582860643336
H         1.42002876585254   -1.34825892541233    1.43161632236695
H         2.16246588452981   -0.07681501024381    2.38785214991156
H         3.20776419520201    0.86529281694638    0.42076031575813
H        -0.97345901709486    2.15195648180539   -0.29359428730240
H         3.58922089502793    2.20371730128136   -0.69899209636024
H         3.66114791229535    3.34449091324850   -1.96933650125271
H         4.04626882085641    1.64314214405057   -2.34939986008332
H         2.27402069670299    3.65018138283546   -3.49967756402966
H         0.50096574788619    3.11362410139797   -3.37796446176720
H         2.68375075886266    1.64824928893614   -4.87264409409702
H         0.96674375461358    1.40480210907360   -4.99011953499253
H         1.92608619383514   -0.72218168377212   -5.05598106006018
H         1.87009386913746   -2.34202446171191   -2.09433612970559
H         0.75394024682779   -1.17810845301078   -1.35794691433583
H         5.89902710526812   -0.81094308444969   -0.80213611170249
