32
 energy: -49.291535553274 gnorm: 0.117386489378 xtb: 6.4.1 (79825abcba525fcdf90b791dcacef51065a7a4e7)
C         2.39195425759976   -0.80142663238064    1.40562056452030
C         2.44817775518212    0.24261018870474    0.28961077907552
O         1.18794835473797    0.90012762110505    0.08994814153322
C         0.90038973588374    1.48606035746714   -1.09910323341611
N        -0.33996767043213    1.67421097073610   -1.38374760852857
C         2.06548353691765    1.86774367782256   -2.08133903956639
C         3.42254856058214    2.33304492949606   -1.48484996900560
C         1.53844112939267    2.89221589402355   -3.11462475420991
C         1.73174624764097    1.86345167740681   -4.24346283816601
N         2.14959253992881    0.90848962437512   -3.22875665383960
C         1.74767788846928   -0.43839358201631   -3.19935522685212
N         1.39732480209470   -1.13647709818706   -4.23340695389386
C         1.69924797560746   -1.07333031092486   -1.82245124160106
C         2.81178210290345   -0.57056630613915   -0.96262382298506
N         4.03646247550724   -0.89664476120423   -1.25134038711429
O         5.04738184249246   -0.48587162137588   -0.39306975672997
H         3.39914246440978   -1.23306206995679    1.39988220211712
H         1.74256003029553   -1.64028005861030    1.13933538204294
H         2.01946315141764   -0.26471871758148    2.28504360270322
H         3.20530986826072    1.02116340871229    0.43683740754544
H        -0.96900416510180    1.32517106106941   -0.64740610430547
H         3.35833517433296    2.84074768802399   -0.51365320462438
H         3.84353588068242    3.02997341137498   -2.21938330537164
H         4.10513157815955    1.47981612004200   -1.52140658273328
H         2.13838866679002    3.80044144461467   -3.20299800784310
H         0.49505637493974    3.04158161864970   -2.80748835923170
H         2.57612239029819    2.12156811051510   -4.89730288849861
H         0.86692662167338    1.47198920433973   -4.78016743199551
H         1.51306626558222   -0.73679296633421   -5.16182729072865
H         1.75953471715777   -2.16455330765524   -1.94086982684864
H         0.77888925332869   -0.86381572723234   -1.26897841165548
H         5.87282017128395   -0.92904621558622   -0.66866214848443
