32
 energy: -49.293886670504 gnorm: 0.131714660392 xtb: 6.4.1 (79825abcba525fcdf90b791dcacef51065a7a4e7)
C         2.31679025233173   -0.59487086018305    1.61473861385274
C         2.46054459214870    0.12780837427887    0.27469338552946
O         1.20477005323779    0.75786238985472   -0.01930445300878
C         0.93252882554138    1.64118294014894   -1.01201782486256
N        -0.17547775793462    2.29102093655047   -1.08231421197238
C         1.96966757402146    1.83244655632606   -2.17635213842069
C         3.35854536513954    2.29142499283485   -1.65262771493904
C         1.41147018380357    2.89923833550925   -3.14865218842468
C         1.41551411486976    1.82985953334163   -4.25608648789319
N         2.05283663089445    0.89500844568705   -3.34172871231135
C         1.95891980148382   -0.50673062026618   -3.28880009051993
N         1.81137043457638   -1.20999487678439   -4.36721533799526
C         1.86725209130762   -1.21510185709613   -1.95045711467695
C         2.83545654149972   -0.79862857661657   -0.89265884818356
N         4.06280486866791   -1.09758419787553   -1.19887455878642
O         4.98667516412732   -0.64692514886620   -0.26576624756600
H         3.22642744492932   -1.12557946557743    1.91752354117820
H         1.43170957387778   -1.23725940861394    1.63101362020059
H         2.16627518984222    0.16837079687269    2.38609927990358
H         3.25755089777661    0.86494429554554    0.42463142815616
H        -0.81598232724087    1.98891566038107   -0.33518578500579
H         3.97703053105530    2.55992520898248   -2.51893733441278
H         3.89162167801218    1.46081927068518   -1.17471283000003
H         3.23894159829949    3.12974486194372   -0.96112926323570
H         1.97977672556263    3.81948162904508   -3.29965050039977
H         0.37254587394654    3.17956990185875   -2.93106284583729
H         2.05638572837404    2.19532819042184   -5.07022296825993
H         0.45853795056548    1.44381191101937   -4.60874996516906
H         1.92287913484384   -0.75218870886411   -5.26892878548932
H         1.98639654976801   -2.27711117676263   -2.20807289722365
H         0.82631502024809   -1.19487288952460   -1.61381261962905
H         5.81802054806503   -0.97695437752045   -0.65774696702086
