32
 energy: -49.289203628636 gnorm: 0.124486015452 xtb: 6.4.1 (79825abcba525fcdf90b791dcacef51065a7a4e7)
C         2.08836967089069   -1.02159398519850    1.41469835437611
C         2.38636337753789   -0.03604435246663    0.28397138980037
O         1.10358361962349    0.47232277876769   -0.11151745939860
C         0.95865528974434    1.50398535738656   -0.98014763916413
N        -0.13635292043215    2.17246739105394   -1.07500739488991
C         1.97707697978190    1.93660613803713   -2.09530207644823
C         3.35597124835589    2.41837138098876   -1.56569579696751
C         1.37261853705611    2.97038094358398   -3.07557551524127
C         1.64178841281636    1.95223438949258   -4.19848391265514
N         2.21329398997110    1.01031965795318   -3.24856038616025
C         1.84425914602577   -0.34580666677765   -3.21350497201736
N         1.46599114420431   -1.06576295095284   -4.22241881103504
C         1.95146717130835   -1.15652485092954   -1.93577371758785
C         2.98794639829125   -0.72237288016777   -0.95239693648329
N         4.23125454181668   -0.92698012475810   -1.27153194246474
O         5.22298086686951   -0.48442936410399   -0.40669165015996
H         3.04236083545071   -1.34958944807545    1.84258852035755
H         1.45613366523839   -1.83619638767504    1.05001179234316
H         1.56074105211920   -0.54984565372304    2.25091090962774
H         3.08589932939436    0.74798414733903    0.59544946242003
H        -0.82451644321915    1.90043112589823   -0.35936655003460
H         3.31062678293905    3.23610180340698   -0.83469002066839
H         3.93642128221202    2.69543618816652   -2.45383526177413
H         3.80560565469551    1.55023764081061   -1.07638191138390
H         1.81040332071656    3.94616095950421   -3.29652429539710
H         0.31694527603137    3.11381555861824   -2.81048100131077
H         2.32739497696021    2.17318593321065   -5.02807780540286
H         0.81258485907957    1.53639540167992   -4.77181372696918
H         1.09720973300990   -0.50214336239978   -4.98494163117672
H         2.26758848507776   -2.14884569410519   -2.28761423248304
H         0.94697168714540   -1.23200572954731   -1.50847970715974
H         6.10870046185326   -0.61091990606618   -0.79810481148822
