32
 energy: -49.291099149092 gnorm: 0.122614570486 xtb: 6.4.1 (79825abcba525fcdf90b791dcacef51065a7a4e7)
C         2.18068948984258   -0.86584611188731    1.34351083368491
C         2.54398790750753    0.19130139859739    0.29990879993418
O         1.37277854125753    1.01250953030470    0.18050074775798
C         0.94503528002189    1.44621357021501   -1.03143439785062
N        -0.25493201547662    1.83813731115215   -1.27919202858204
C         1.98340494507959    1.92459738890264   -2.10886200958244
C         3.39176218216131    2.38166767620382   -1.63817464680403
C         1.36939833133573    2.91303634854207   -3.12914661368947
C         1.59619238686045    1.83073782817183   -4.20021732523162
N         2.18299783309129    0.93504473912716   -3.21554989473453
C         1.79158308516062   -0.41499315923413   -3.18935148951380
N         1.39468141761538   -1.06462796009688   -4.23805284814410
C         1.88097155954789   -1.18743475086873   -1.88677775069256
C         2.89865310868686   -0.65718772043121   -0.93128346431735
N         4.10808503521475   -1.04842521118328   -1.20282360565666
O         5.05432262525336   -0.48529809689649   -0.35733954938783
H         2.95942379127597   -1.63645671852773    1.32109782513997
H         1.30601792892747   -1.25536847534731    0.81481647362365
H         1.96563077190880   -0.51595002517139    2.35914480334269
H         3.36804018024954    0.86011360712144    0.57321795989870
H        -0.93152858481175    1.51106655769984   -0.57566066137024
H         3.33532792221325    2.82811336584918   -0.63687048263996
H         3.71965674684877    3.13494155348324   -2.36449583878440
H         4.18658507426092    1.63185798945827   -1.60215581999424
H         1.91185314792430    3.85448270529859   -3.23888291089760
H         0.32286753080083    3.11429340990402   -2.86539767688659
H         2.37712982183669    2.03846518258727   -4.94458823094148
H         0.67515097460065    1.45717388489135   -4.64892699715346
H         1.46879352605280   -0.52292124876691   -5.09605579090283
H         2.29689073634517   -2.18874375240260   -2.06793127622584
H         0.92138570641806   -1.29210603435701   -1.37148404463172
H         5.92649781714495   -0.83910009162323   -0.61779665727294
