32
 energy: -49.291534725526 gnorm: 0.119797545983 xtb: 6.4.1 (79825abcba525fcdf90b791dcacef51065a7a4e7)
C         2.45159276481080   -0.80390768785301    1.51453855075567
C         2.55633112010270    0.06605098253791    0.26120156840999
O         1.33258612469306    0.78333782133117    0.04138287918993
C         0.93443852550252    1.49411266481830   -1.04311143678730
N        -0.28772314583522    1.88231995898073   -1.14570549663889
C         1.89667854848501    2.01161485321913   -2.17191548264102
C         3.23216021133161    2.56355258519435   -1.60114103874558
C         1.14318011720860    2.86702131282589   -3.21858462815784
C         1.82807971517346    2.03795990368042   -4.32020517214658
N         2.17893505455842    1.06458579488829   -3.29764951695978
C         1.85947375800334   -0.30183257452379   -3.21197831083225
N         1.56978401302520   -1.01838918040787   -4.25215011093198
C         1.80792541815135   -1.14312060531211   -1.95065680950395
C         2.87229878401429   -0.81890339149732   -0.95476546644273
N         4.07929061155147   -1.25170683242711   -1.16778741102300
O         5.01308170583946   -0.97121433557336   -0.17951661286012
H         3.44427734600657   -1.14818637510289    1.82569714108720
H         1.78073809776202   -1.63511284893669    1.27927757082543
H         1.97455618486514   -0.21971694181093    2.30911212234935
H         3.41667700108976    0.74295236872992    0.31296365137007
H        -0.99488354659534    1.72398535937133   -0.41456330723202
H         3.43425783431805    2.28050881794483   -0.55991512864320
H         3.18786861096565    3.65909615130484   -1.61850223328513
H         4.08251732900349    2.15666590559211   -2.15484797757248
H         1.38457181090271    3.93198699048072   -3.20448895532129
H         0.05259336572325    2.81725065881542   -3.10266203581537
H         2.69030337751107    2.57440574920178   -4.73960734802644
H         1.16670711215824    1.74975687144395   -5.13796611651053
H         1.54271546320756   -0.49630459377028   -5.12496326529622
H         1.86430177462864   -2.16663477197820   -2.34772802173217
H         0.82909050985275   -1.04121546821574   -1.47234071937231
H         5.89443535606395   -1.18020990409536   -0.54453704824321
