32
 energy: -49.289609140854 gnorm: 0.113864723882 xtb: 6.4.1 (79825abcba525fcdf90b791dcacef51065a7a4e7)
C         2.11010138223030   -0.37604144356794    1.57234736173368
C         2.36315617226326    0.33541817633853    0.24252019247009
O         1.13187865163166    0.97392213221523   -0.12712945393405
C         0.91648226380232    1.81150156515948   -1.17207702551751
N        -0.14121347805837    2.51319458056028   -1.38140032157496
C         1.95897707057058    1.86492092894664   -2.34607188537364
C         3.36271034722630    2.35881365493157   -1.89938086421941
C         1.46900233880846    2.68957600360859   -3.56051215977463
C         1.67518048806691    1.43126937525062   -4.42315525159718
N         1.93610787583046    0.65103466120290   -3.22343554397860
C         1.83713899816871   -0.74677206239144   -3.11014069390636
N         1.45944056338784   -1.65017145855688   -3.95898949655910
C         2.07235662043189   -1.37316697709870   -1.74865004607250
C         2.94927002012850   -0.65218166622274   -0.77859329401727
N         4.22188218735363   -0.91386243989687   -0.81742482341210
O         5.02784375130582   -0.39848608534532    0.18862397754849
H         1.72810702933017    0.36134330327914    2.28726988457508
H         3.05265700776954   -0.84171438740607    1.87406467730362
H         1.34514279485661   -1.14967329855857    1.44380941889021
H         3.06392592322964    1.16049329387090    0.41352501397607
H        -0.85551956076395    2.54703113232558   -0.64090285716401
H         4.01235196162254    2.75566703346501   -2.69031814969689
H         3.81105028857497    1.47386718932980   -1.43211229509979
H         3.30863920314370    3.11643961290358   -1.11303832316824
H         2.13368064734327    3.38632185292744   -4.07565146225788
H         0.46113225971211    3.09493533279674   -3.40184159331027
H         2.58720474827175    1.49859760167377   -5.03207284556212
H         0.91599275413259    1.02513903417530   -5.09240841961567
H         1.25337972874832   -1.29315957131585   -4.88914500200608
H         2.42959396101674   -2.39863217157829   -1.91961116575085
H         1.12575891113500   -1.41515718975562   -1.20140391819467
H         5.94872914784464   -0.46780845333797   -0.12897296612139
