32
 energy: -49.284465152959 gnorm: 0.119469214342 xtb: 6.4.1 (79825abcba525fcdf90b791dcacef51065a7a4e7)
C         1.20878153438742   -0.60202510923385    0.79993933349019
C         2.22886654886748    0.25790027724788    0.05253936793615
O         1.37846462242042    0.84985530796999   -0.94082778575339
C         1.57656861499758    2.09782746860935   -1.43395113468623
N         1.57260158927676    3.21398656415350   -0.79435537515417
C         2.02815204122684    2.03501042631047   -2.93729388049521
C         3.39501496946974    2.72796217708682   -3.19309380242700
C         0.91143573520024    2.41797244067263   -3.93793426840852
C         0.65475036039027    0.90684870626224   -4.08151623189961
N         1.89380618047045    0.61014204013932   -3.37946030653627
C         2.15587876391404   -0.61022118456913   -2.73252462382173
N         1.32873918732129   -1.59982578997873   -2.85843612479377
C         3.48757167246576   -0.64998172606962   -2.00701254214826
C         3.35090640386933   -0.62212957840041   -0.52028665019244
N         4.23758134349748   -1.20686427337272    0.22899254509367
O         3.96700588065476   -1.22525617326360    1.59052538379346
H         0.40013285372335    0.05751206640995    1.13440635529258
H         1.67539760011432   -1.08606260866760    1.66265184669053
H         0.90500220980138   -1.33350522322901    0.04307418250909
H         2.63773933117217    1.02677474381929    0.71791515383828
H         1.35076479116991    3.08390586197355    0.20243047566985
H         3.85560962437350    2.84941901269021   -2.20404909906426
H         3.15524875044307    3.74514209489559   -3.52526249046086
H         4.03275523605301    2.09879820581692   -3.81974794888010
H         1.23690122179137    2.90668942340715   -4.85872113841716
H         0.10199651606548    2.99216769261843   -3.46846372709741
H         0.66537332931213    0.66630548000594   -5.15349015092042
H        -0.19079178226079    0.39403984462395   -3.62184979790096
H         0.47458706374282   -1.39248050501290   -3.37082260075401
H         4.08522474545815    0.22779082342325   -2.29118016059689
H         4.09372546747912   -1.53912198187395   -2.20524445404683
H         4.79723500034296   -1.35066072375950    2.08922030938468
