32
 energy: -49.292421642739 gnorm: 0.123672087192 xtb: 6.4.1 (79825abcba525fcdf90b791dcacef51065a7a4e7)
C         2.27226804789897   -1.04696330967963    1.38541832582870
C         2.41106527906994   -0.01064705228887    0.26942740276718
O         1.16651342285265    0.64678747223657   -0.01207393102770
C         1.00444390228651    1.53083861670531   -1.02796632151331
N        -0.18648049711054    1.98753666775281   -1.19540454696468
C         2.05879162758451    1.98251633212720   -2.10139589109530
C         3.36395642762076    2.52504860151338   -1.45631175604155
C         1.46969801342088    2.96642854267348   -3.14056953624735
C         1.58150055585046    1.90220754253386   -4.24733597596661
N         2.09764775537837    0.99896166030368   -3.23051955920147
C         1.82460938639724   -0.38013619521146   -3.22474401316281
N         1.28749505365209   -1.03351007276282   -4.20654930998264
C         1.95709929394578   -1.22210098616587   -1.96979524457098
C         2.95614567060427   -0.66784236146229   -1.00828043432575
N         4.20768744382537   -0.95185191325253   -1.21445557341169
O         5.14267682805101   -0.56158983545715   -0.26534474031124
H         3.18402369969067   -1.24588175553914    1.95979036606918
H         1.76413640585251   -1.95215270037851    1.04084593691624
H         1.64546857926432   -0.65600554245766    2.19440802656569
H         3.13740774194422    0.70680429933831    0.66787440750550
H        -0.91690752391283    1.56860271639470   -0.60321767919276
H         3.15365248442376    3.45208404548793   -0.90723420849987
H         3.98094868419737    2.79021139606963   -2.32319589366791
H         3.96724859987166    1.85510635142123   -0.83786912317770
H         2.03741530918856    3.88075917653404   -3.32581826820696
H         0.47153897944396    3.32361957311503   -2.85528417698670
H         2.22881640088028    2.10518122618719   -5.11156155416780
H         0.65279322401493    1.59201349304962   -4.72742972854627
H         1.02913788340482   -0.57104898564587   -5.07516264804655
H         2.20146117510084   -2.21255114424891   -2.37933259464979
H         0.90896044625056   -1.26655822336990   -1.65880131358831
H         5.96642393162514   -0.66824827520646   -0.77892823832765
