32
 energy: -49.293983058775 gnorm: 0.118920676113 xtb: 6.4.1 (79825abcba525fcdf90b791dcacef51065a7a4e7)
C         1.93446379190630   -1.14702834416510    1.19274523642693
C         2.28988960227447   -0.06297151236660    0.17434202592913
O         1.09083806830440    0.61376231163230   -0.23146489730667
C         1.06749937575166    1.80221104289644   -0.88483712382202
N         0.20141224377589    2.69674582872642   -0.56140211338382
C         1.99904676682231    1.95602739425959   -2.14041386716855
C         3.44510335894322    2.35302256316230   -1.73391029017869
C         1.45257907050930    2.91924242099498   -3.22142555981597
C         1.22677053874680    1.73510980574271   -4.17894243045430
N         1.80412290908774    0.87437107119395   -3.15817323441541
C         1.88783134001429   -0.52246968134718   -3.29353571749350
N         1.62325815720446   -1.15225359557737   -4.39476417582766
C         2.21427725838032   -1.37620183166409   -2.08278009766927
C         3.01608975695318   -0.69218182067035   -1.02494250203244
N         4.30770325381771   -0.83225364913675   -1.06545058602015
O         5.04950814445839   -0.40874642213359    0.02893881157594
H         2.73819151035551   -1.52158791516970    1.83655968552598
H         1.38591113901305   -2.00422803846459    0.79200291910703
H         1.36285193129634   -0.61309175333063    1.95979249051269
H         2.91867396568365    0.71196788511998    0.62729787429498
H        -0.34513650477779    2.38731186205176    0.25422627996735
H         3.23912820426313    3.26733016080131   -1.16231210810567
H         4.04204761467719    2.66692609103836   -2.59854951500880
H         3.96629373555838    1.55384216289614   -1.20012508266948
H         2.21376447707700    3.63889414503108   -3.53016284297107
H         0.49483048917889    3.40780311393312   -2.99934284273349
H         1.75506400569585    1.76283186514454   -5.14187517457393
H         0.19341534949244    1.54261171138681   -4.46933734375959
H         1.49410347991187   -0.59412214912962   -5.23554724770724
H         2.70260515871740   -2.28896068945093   -2.45268848342171
H         1.25249089116894   -1.59722721917154   -1.61012431835762
H         5.91630379910083   -0.30233987608936   -0.40814958218357
