32
 energy: -49.292745397013 gnorm: 0.112486535698 xtb: 6.4.1 (79825abcba525fcdf90b791dcacef51065a7a4e7)
C         2.04459193462055   -1.06375553137924    1.24570109997940
C         2.34644477847222    0.01371876414549    0.20330682321510
O         1.09722155541529    0.67869270149168   -0.03674215701150
C         0.94517714995602    1.69294504545165   -0.92444989703170
N        -0.10378909804298    2.43665531370108   -0.88605114360285
C         2.01254428441533    1.94955560699077   -2.04818981466283
C         3.48446394334365    2.16544328983583   -1.60011056630060
C         1.51537247837177    3.02548072392619   -3.04327862951832
C         1.29050686104897    1.89089081962653   -4.05922120026755
N         1.79775308872020    0.91357358528327   -3.10857458821782
C         1.89316666022271   -0.47127895481368   -3.33122659314177
N         1.74601004126987   -1.11325933817574   -4.44726288174254
C         2.17117338823856   -1.32438426353227   -2.10800203655955
C         2.95708992936223   -0.59479139183137   -1.06885022386946
N         4.21526272577609   -0.87007180672495   -1.24420234513926
O         5.04128242872529   -0.40557547478813   -0.22967997788269
H         2.95435667221497   -1.35177928493672    1.78434811265131
H         1.52355333447371   -1.88632236905373    0.74750604581334
H         1.32682829362520   -0.55544346180453    1.89886577268111
H         3.04306449328637    0.71895081103143    0.67068095843250
H        -0.75962488789809    2.12596402807645   -0.15593818496929
H         3.81602762489358    3.16917350944469   -1.89625207272758
H         4.19201676617106    1.44290804622830   -2.02412787603010
H         3.73347492902642    2.17969906245732   -0.53566438879143
H         2.28253687175279    3.72992651378492   -3.37166172814986
H         0.56889689574319    3.53282494472764   -2.81506723278801
H         1.79323660115094    1.89985854997380   -5.03609599355154
H         0.21817209778854    1.71854833123145   -4.15722069129490
H         1.41856193285114   -0.45758211083433   -5.15293485601290
H         2.73099802764950   -2.21886896715778   -2.41609063303674
H         1.19121924321683   -1.68973682739660   -1.78629393543325
H         5.90818719247572   -0.80124336359976   -0.44328329300433
