32
 energy: -49.295628617166 gnorm: 0.114919944582 xtb: 6.4.1 (79825abcba525fcdf90b791dcacef51065a7a4e7)
C         2.24231291795560   -0.75134216490606    1.47956271082164
C         2.53015828863432    0.01786512423707    0.18955612782866
O         1.27983513292219    0.64111307472303   -0.14002917760485
C         1.02044744396034    1.58393956318942   -1.08005393394487
N        -0.05939911603515    2.26132241786127   -0.90686772502321
C         1.99098150914878    2.02896319468642   -2.23241261160852
C         3.29446959850147    2.53347534848615   -1.55394650467684
C         1.35051521834806    2.94980691177441   -3.29864248955949
C         1.43907382160736    1.79156727185548   -4.30890800490731
N         2.07858448449134    0.97260050188668   -3.29082341544161
C         1.81470460336460   -0.40542558761590   -3.20190940756492
N         1.53429126779457   -1.07185800451139   -4.27734748731188
C         1.91267071851671   -1.24077501550910   -1.93939261984174
C         2.99725138554667   -0.84754734161545   -0.99130835290368
N         4.23337182342913   -1.22234203091079   -1.13643458510990
O         5.01978221192912   -0.73570599280875   -0.10102882645562
H         3.17205375370199   -1.01861409536369    1.99426442136534
H         1.64725355314623   -1.63697075406455    1.23901731802500
H         1.60251512539743   -0.05941329310464    2.03820670311551
H         3.18645771272918    0.88828631019571    0.30228526212984
H        -0.60320892970692    1.91016963888878   -0.10644458844513
H         3.91112520331160    1.64047892018070   -1.38841142119681
H         3.06672567567816    3.17285441706063   -0.69266492054013
H         3.90198411224305    3.08629104984713   -2.27545622922605
H         1.89700240657592    3.83233026841323   -3.63794294738211
H         0.32958698052984    3.21316855932148   -2.99263464681916
H         2.03389179289645    1.99716651876589   -5.20947588336946
H         0.47321646846658    1.37613715772973   -4.59829540557125
H         1.36605674935805   -0.51583285849119   -5.11259655306420
H         2.15755377643219   -2.26204307556078   -2.26415240392657
H         0.95837233152565   -1.26428192998970   -1.40455552407384
H         5.93964846256815   -0.96735629232089   -0.33316573079795
