32
 energy: -49.287209955416 gnorm: 0.127336430344 xtb: 6.4.1 (79825abcba525fcdf90b791dcacef51065a7a4e7)
C         2.23941241187269   -0.97639590237692    1.41549200375769
C         2.45916588388076    0.04941044385597    0.30280086836587
O         1.23725565343717    0.76763176920775    0.07593966887479
C         0.95619159478696    1.66093146347141   -0.90531920143078
N        -0.22681079107422    2.16547933433861   -0.87622619010282
C         1.91061753394965    2.04151721752380   -2.09365356234498
C         3.39040037243250    2.40965420890253   -1.79591560604471
C         1.29111250596468    2.97921846089428   -3.15757381054530
C         1.64301139932939    1.92286072130400   -4.22071707386958
N         1.83758888946609    0.97054478682009   -3.13839981568575
C         1.90993252120610   -0.42711194644289   -3.27187739327280
N         1.82695542866506   -1.05038784439461   -4.40500264134170
C         1.86198048448728   -1.22284357925856   -1.98119289646243
C         2.83755302363363   -0.74767443173252   -0.95538612618627
N         4.07229185054177   -1.11333512513616   -1.13213093651506
O         5.11227969926093   -0.64422140661974   -0.34113244691601
H         3.18839279882159   -1.27873164201921    1.87243782929938
H         1.68676998055342   -1.85657188826285    1.07465141158763
H         1.73225965579543   -0.55311821636146    2.28946109418158
H         3.29571949383466    0.65769081396228    0.66507546488585
H        -0.76616955141384    1.90079617365964   -0.04031379090638
H         3.33250276794361    3.41506685171612   -1.35899237527075
H         4.07464256881128    2.32628418142362   -2.64875844544803
H         3.70444938754807    1.73483375031643   -0.99513727282310
H         1.79745475083100    3.91305985239468   -3.41090820634190
H         0.21063195628789    3.13801837934018   -3.04515052772518
H         2.45772974877886    2.19377083201753   -4.90624146620971
H         0.82577751556399    1.50012732213734   -4.80606562932710
H         1.75812105939840   -0.43228265807581   -5.21018313552918
H         2.15183950728414   -2.26440395282925   -2.18008689767804
H         0.81447498250018   -1.31587625811980   -1.67892504021460
H         5.82519212478343   -0.75954821600599   -0.99852040295946
