32
 energy: -49.289205927989 gnorm: 0.119544666240 xtb: 6.4.1 (79825abcba525fcdf90b791dcacef51065a7a4e7)
C         2.39153186381008   -0.87632432516539    1.35020162063601
C         2.51089355924960    0.16657461220786    0.23810161764684
O         1.27625983686103    0.89802931692257    0.20606901630391
C         0.89421458960015    1.55745887643955   -0.91600246268539
N        -0.32885616660239    1.93175873214378   -1.05350567861622
C         1.90162017440940    1.94218125714979   -2.05838401268020
C         3.38792635477535    2.29548340294979   -1.77553862893022
C         1.32796757740439    2.94606559891445   -3.08704106253094
C         1.73420648737558    2.00374024327293   -4.23464333333397
N         1.91488795048991    0.98583264858249   -3.21122015396614
C         1.86636024109075   -0.41918927302962   -3.21847704196503
N         1.86970677967712   -1.24576034837676   -4.21652510006177
C         1.63853706663668   -1.09696560897534   -1.88054185576585
C         2.78178184388188   -0.68182840729144   -1.01425117630604
N         3.97746473528620   -1.15389431107498   -1.20666391350758
O         4.94807935878855   -0.58290453957434   -0.39475322973799
H         3.37559490474474   -1.29905645241776    1.58190756511428
H         1.68413801141022   -1.67197906877910    1.09955605008545
H         2.07480050649807   -0.41418588274416    2.29163626983485
H         3.38043994373393    0.81418269842261    0.39798500480885
H        -0.91780596818043    1.57923368889695   -0.28631677682063
H         3.62341710835034    2.60738122366097   -0.74968656006487
H         3.57844023188002    3.06728286191432   -2.53085903854846
H         4.08975547722542    1.48045571738128   -1.97155168991835
H         1.83070758518953    3.91505400235715   -3.11761050052818
H         0.24772117298490    3.06539526734970   -2.93172601065677
H         2.66424382506063    2.32744591812175   -4.72182621153715
H         1.12520087127576    1.77962475309847   -5.11105195298784
H         2.22904782678473   -0.77492949319238   -5.04374946066272
H         1.57901279424604   -2.17788210294309   -2.07159547719879
H         0.71333131654529   -0.82335944180120   -1.36438034449287
H         5.77470175802487   -0.77462596590849   -0.87811813092373
