32
 energy: -49.291807048207 gnorm: 0.129974846474 xtb: 6.4.1 (79825abcba525fcdf90b791dcacef51065a7a4e7)
C         2.09074744968340   -0.64049866490324    1.50202558243089
C         2.46529261134181    0.31156842074047    0.36539195430938
O         1.24503768318868    0.92888152292119   -0.07081320182324
C         1.01445927133818    1.66272633498692   -1.18802209603454
N        -0.19501191046671    2.07881184558887   -1.32572434201288
C         2.09933928664829    1.93314795783266   -2.29157111900257
C         3.48278754891508    2.41590163076346   -1.77489928770611
C         1.58145435815125    2.85532390465817   -3.42134238711566
C         1.60573725026943    1.64060279457329   -4.36678464818473
N         2.14486181396853    0.82027748323001   -3.29319823437695
C         1.77273414341578   -0.52375550636683   -3.11546095581510
N         1.22954752351371   -1.23854935082166   -4.04999235049817
C         1.88596711283790   -1.19853560390427   -1.76150201668376
C         2.86009951424888   -0.63096496171877   -0.78235103413385
N         4.09348929123684   -1.01574355325824   -0.92455345007540
O         5.11869407207187   -0.53524951891860   -0.12118451022626
H         3.02480155143819   -1.11739607079205    1.81964479489011
H         1.39195683762276   -1.43183610944198    1.21606673372410
H         1.60233903908315   -0.10432903030795    2.32310367673497
H         3.13285150892113    1.08405236815869    0.76376803075824
H        -0.70296334371640    1.85498848650416   -0.45877391961343
H         3.31732260948625    3.12445924173000   -0.95290410174007
H         4.05230666853971    2.69676281417806   -2.66890366760856
H         4.09825086560700    1.57395235027971   -1.44690282122282
H         2.28553348225172    3.57894476758590   -3.83759467113980
H         0.59573477568237    3.28195694066255   -3.19410730091295
H         2.21491927240091    1.70726526013374   -5.27868121823349
H         0.62334594110859    1.25845503963075   -4.64620921300773
H         1.24038307501013   -0.90279440339385   -5.01033553059263
H         2.21255489107082   -2.22964056797106   -1.95794046945614
H         0.86863441623988   -1.22061716911162   -1.35921442555143
H         5.82672972430912   -1.17735341701206   -0.32141293560533
