32
 energy: -49.288548780286 gnorm: 0.126591483877 xtb: 6.4.1 (79825abcba525fcdf90b791dcacef51065a7a4e7)
C         2.26654478575361   -0.85027921314797    1.41269502112820
C         2.46611411441906   -0.00801238047542    0.15197678782522
O         1.21816548463986    0.68543678324355    0.00323220205684
C         0.99714891422635    1.57102493986988   -1.00012995205158
N        -0.18485062820204    2.06897921428852   -1.09926737051195
C         2.02437077347284    2.02895036707439   -2.09695833933459
C         3.45123995820012    2.45651086147517   -1.65518199082337
C         1.32251810866185    2.95553898446888   -3.11863968742035
C         1.46489495872162    1.88436283836997   -4.21513802408439
N         2.07076017623315    1.02622659178928   -3.20880496674869
C         1.84923870224160   -0.35631617963979   -3.33528792933121
N         1.34923684143864   -0.88966951397714   -4.40527075000754
C         2.11770009686440   -1.30725148190534   -2.18419921910249
C         2.96151254623625   -0.82928236442942   -1.04871118760607
N         4.22569100725278   -1.13133455316978   -1.03672278377351
O         4.94079510977867   -0.71014253378971    0.07617632330119
H         3.08023003095127   -1.52897484664977    1.69208492024776
H         1.46819241752719   -1.57976322697265    1.24904203361153
H         2.01037184672283   -0.28307052866526    2.31427120627535
H         3.29806218301766    0.66866364158007    0.37790112011942
H        -0.91069108219075    1.83246087411036   -0.40866669408653
H         4.10273495994737    1.81602815175805   -1.04654024713634
H         3.18886054364891    3.33116512359474   -1.04804458350434
H         3.94623371569198    2.84255491232263   -2.55028340725001
H         1.91056771344363    3.85440512941684   -3.31576363723586
H         0.27328370319954    3.12300905297598   -2.84231456982061
H         2.09907109434831    2.21174114426549   -5.05044997123863
H         0.44777194919494    1.58582351081804   -4.47115116999109
H         1.25398319038390   -0.16451540056977   -5.11250909658249
H         2.62829286018093   -2.16715598866776   -2.64058102473395
H         1.10307011188954   -1.54475700996129   -1.85042409492218
H         5.85741648823986   -1.00953141210083   -0.07833862984432
