32
 energy: -49.287685724603 gnorm: 0.119765219186 xtb: 6.4.1 (79825abcba525fcdf90b791dcacef51065a7a4e7)
C         2.21909722056097   -0.79932628359245    1.52758544298732
C         2.49035251405418   -0.01491683901897    0.24315008786812
O         1.24444862050682    0.65042201035141   -0.01262359556144
C         0.91323588053782    1.53853183609644   -0.98288611842489
N        -0.30940395236177    1.93852499403396   -0.99106547755532
C         1.89070029472074    1.99278974331029   -2.12574481098783
C         3.31626273774155    2.47306048237064   -1.73710395567570
C         1.36053817269506    2.99785701144109   -3.17634668533499
C         1.61211527153239    1.95765921292689   -4.28300634631221
N         2.02250309319775    1.01556415045714   -3.25333872166294
C         1.82043506185990   -0.37560543172647   -3.27094324078219
N         1.53216200310032   -1.05166287124624   -4.33826505604712
C         1.96898781596566   -1.19656632475762   -2.00393495776770
C         2.99102114267008   -0.74233026266778   -1.01452882639008
N         4.22571722480896   -1.12213245190073   -1.15875888028584
O         5.16123441858416   -0.71102945064491   -0.21901268211751
H         2.93619408134106   -1.55745204573479    1.86193193220532
H         1.30143402317822   -1.39441321850044    1.51974169044658
H         2.03013980172202   -0.10383956449738    2.35268131797927
H         3.25280853265301    0.73471315202425    0.48353629330139
H        -0.79395691150079    1.51957881952573   -0.18520747449226
H         3.21620347785492    3.24931605615361   -0.96734811725899
H         3.83762615977328    3.04086389976730   -2.51701312577819
H         4.01904885895690    1.75587833981638   -1.30467268748188
H         2.06285051371859    3.83108127341901   -3.10482575745895
H         0.29820208525867    3.26787648912879   -3.11449086276083
H         2.43431730592513    2.27935577998418   -4.93691544261594
H         0.80628388446894    1.63673618313933   -4.94395404189310
H         1.18359630831267   -0.49262847147999   -5.11356520225579
H         2.18155552135784   -2.20680067272359   -2.38164730676892
H         0.96327721627907   -1.14083818293799   -1.57646649601867
H         6.02202656057038   -1.11706073355376   -0.43782494763312
