32
 energy: -49.288951490242 gnorm: 0.125973484603 xtb: 6.4.1 (79825abcba525fcdf90b791dcacef51065a7a4e7)
C         2.02339620832763   -1.05750891680083    1.25344917263036
C         2.44106015556053   -0.03121407806812    0.19944370680937
O         1.28592860425862    0.80547756614687    0.03822759733294
C         1.09233601510016    1.83551718858676   -0.82281279994654
N         0.24818916880412    2.78779826265039   -0.63443435198572
C         1.76351841295944    1.99819239138975   -2.23382799781114
C         3.27363866474788    2.30936531406119   -2.04241688266025
C         0.97624430840908    2.89384035912892   -3.22024098894763
C         1.16367057490013    1.77017586796515   -4.25573488593434
N         1.49371754100755    0.86022833720050   -3.16980617144716
C         2.06863085161554   -0.41248283140837   -3.33159355291511
N         2.26601602078658   -1.01132048158065   -4.46374346309588
C         2.12032162079450   -1.24901885206562   -2.06712124356267
C         3.04507431094168   -0.80867513913831   -0.98050408192597
N         4.29393649276106   -1.16310117570125   -0.91529792905164
O         5.01370649620314   -0.56169333698595    0.10820623056049
H         2.79985744327340   -1.81025402200866    1.43023411100039
H         1.21047518946817   -1.63242934591091    0.80076644879000
H         1.71551784343781   -0.55288732500171    2.17581452672428
H         3.23013962478188    0.58090578632516    0.65081127697508
H        -0.29381399831286    2.68055866222149    0.23415462894768
H         3.43194287048911    3.28790442694288   -1.57070765229220
H         3.84335510749901    2.38153132450875   -2.97659785844908
H         3.74428739959273    1.48359295873685   -1.50218993561948
H         1.62382655540184    3.74077170469602   -3.45681035452406
H        -0.04724523632925    3.07326318358525   -2.86588067929932
H         2.02671390163278    1.84119479756424   -4.93191127059867
H         0.20637626658276    1.49371343788448   -4.69886444577444
H         2.10888670184222   -0.41884139216657   -5.27576977025325
H         2.58084161226484   -2.22008636528002   -2.29815003943975
H         1.10956796970062   -1.41473815244084   -1.68214998318984
H         5.82179398531214   -1.10665456918993    0.16915857116471
