32
 energy: -49.289602209797 gnorm: 0.113721689153 xtb: 6.4.1 (79825abcba525fcdf90b791dcacef51065a7a4e7)
C         1.59813390620859   -1.01196721703400    0.96542887357485
C         2.18260268788943    0.11939698339586    0.11863311442071
O         1.12229992246555    0.83420912903561   -0.53342061815454
C         1.18269014383994    1.84817724011116   -1.43234885929585
N         0.24702567149039    2.72486404720739   -1.32812881617450
C         2.28780621615248    1.87419937292345   -2.54857206697759
C         3.73129489717558    2.16740541110814   -2.05430433089602
C         1.66794697183401    2.69874189249507   -3.70221869149713
C         0.97646204610229    1.38174720862422   -4.09891971593502
N         1.94364429542498    0.63228656191038   -3.31212626601374
C         1.69435045790584   -0.65838020043834   -2.81360233983334
N         0.76847539370503   -1.47748236963571   -3.20239259834863
C         2.80529050374233   -1.26136931051696   -1.97481093143782
C         3.26754622467599   -0.49905823012490   -0.77689255591177
N         4.53468617460955   -0.46763906014212   -0.48897664869671
O         4.81718147668296    0.10180434644443    0.74522415249446
H         0.84903377457492   -0.67158461226720    1.68914071292028
H         2.44071674382000   -1.46584815233907    1.49490218306955
H         1.06595485482910   -1.68962267776813    0.28885041181009
H         2.68215433018522    0.81157510572423    0.80595212293653
H        -0.43438253139820    2.51816801495211   -0.58470821270200
H         4.44131914049626    1.38248318082564   -2.34563107927946
H         3.74982872097683    2.44616645931902   -0.99391401483721
H         4.01921334003998    3.03967250517035   -2.64718581729106
H         2.45252624273506    2.91650100358346   -4.42998023967917
H         1.09286755928392    3.61509478908678   -3.51546844039092
H         0.95967822108427    1.13116469252315   -5.16851247977923
H        -0.03079750105781    1.08294302771051   -3.80676916672218
H         0.09095868451556   -0.99181729630156   -3.78566643331237
H         3.60198849251938   -1.44342135191417   -2.71003500677746
H         2.32574986845634   -2.18769017727999   -1.64426722369764
H         5.79319875399204    0.13004107805752    0.76243703270121
