32
 energy: -49.285603514217 gnorm: 0.124204708347 xtb: 6.4.1 (79825abcba525fcdf90b791dcacef51065a7a4e7)
C         2.24920986941564   -0.97004191413902    1.26279790422709
C         2.50546164524420    0.10457855676871    0.20535869641049
O         1.27650931917018    0.82979573491558    0.05008890527592
C         0.91561266303736    1.51176807391750   -1.06549060768645
N        -0.31479953860598    1.82270909569695   -1.27599258910655
C         2.00515749294065    1.95296201269361   -2.10767720719083
C         3.25114689538414    2.50087854543268   -1.35852579345228
C         1.59114141673634    3.05568322558642   -3.11146653449212
C         1.56178850712730    1.98784115796425   -4.22000152685175
N         2.06778812283890    1.00964774911124   -3.26959176208860
C         1.80374078067850   -0.37059733108533   -3.31078279760380
N         1.35694517731484   -1.03515395486784   -4.32963952610835
C         1.92388857476375   -1.15311918213208   -2.01672764441137
C         2.95190715033149   -0.60682955571457   -1.08155254333684
N         4.15833199996030   -1.08338076698031   -1.16500586458308
O         5.09944288681268   -0.74320251275072   -0.20276365538990
H         3.14180480230876   -1.60528171404857    1.28548809839521
H         1.40410113580452   -1.56406970470345    0.90332892592964
H         2.02624227287713   -0.76257972754719    2.31514517332919
H         3.34922512550300    0.75283698612614    0.46783542521588
H        -0.81497118438800    1.51045262511819   -0.43216866679247
H         3.81736601008624    3.20446254806312   -1.98260437668374
H         3.99579674280217    1.78181836918049   -0.99668617239135
H         2.84475265735693    3.09779523975969   -0.53767894392123
H         2.38001744101057    3.80912863517669   -3.16260526305508
H         0.59812261609557    3.42089444326742   -2.81850056713937
H         2.30408846721382    2.20307164127854   -5.00087832883253
H         0.53668115206460    1.71210035160123   -4.46966048043235
H         1.39213368041647   -0.45901359076698   -5.16745327032075
H         2.23397194535622   -2.17026414244847   -2.29545603694278
H         1.02028428318981   -1.16175691110188   -1.39970788353803
H         5.82134315457496   -1.36964609728695   -0.40309279021234
