32
 energy: -49.295989664576 gnorm: 0.116944412683 xtb: 6.4.1 (79825abcba525fcdf90b791dcacef51065a7a4e7)
C         2.17355699855161   -0.88666198318097    1.37828332865491
C         2.34105870500074    0.02321360064815    0.16061283902818
O         1.09269542122128    0.69928641946194   -0.05125305287384
C         0.92522940130534    1.61908850099531   -1.03398883091944
N        -0.10285966098885    2.39216348991858   -1.01673877657368
C         1.95839425653281    1.96829322913925   -2.16471400925678
C         3.36732863484879    2.25468147595840   -1.57580340247425
C         1.45027326152156    3.00799329735158   -3.19225147386763
C         1.43636686621767    1.90350530518426   -4.26459050193929
N         1.95305079959746    0.96689184774484   -3.27870530296059
C         1.94270217858205   -0.43859015813058   -3.31044569418675
N         1.93168470345625   -1.21083286363146   -4.35104681713633
C         1.92668396114054   -1.22181038215610   -2.01134438698909
C         2.92105050716071   -0.85435971002616   -0.95966848259532
N         4.18484249597003   -1.14847589033696   -1.03616631660513
O         5.04078745625106   -0.55465554845749   -0.11852987156239
H         3.18728025224725   -1.23483381881449    1.60612472848338
H         1.49291916934958   -1.72893931979375    1.22467093153971
H         1.74224235524008   -0.32994134491160    2.21746131935464
H         3.02204267330156    0.83213908960990    0.44865837808973
H        -0.65213835026155    2.25382007719554   -0.15716410641763
H         3.87581049172822    2.94292335688553   -2.26346461279512
H         4.03978883841160    1.39988369825517   -1.43581449636727
H         3.17807755683996    2.82422081493863   -0.66198484830334
H         2.03497212574851    3.91013438782681   -3.38431715517130
H         0.45773929542825    3.24809547970176   -2.78911141671110
H         2.09632784166664    2.19342734325579   -5.09374591104150
H         0.40020426402652    1.73440634769758   -4.55951468778176
H         1.80481129218304   -0.76501980466625   -5.25672980500061
H         1.97524650352276   -2.26868861275369   -2.34317678065087
H         0.94419684067123   -1.03494489687963   -1.56739723390998
H         5.92560581915744   -0.89506757210297   -0.35287884601935
