32
 energy: -49.281890426714 gnorm: 0.122829690831 xtb: 6.4.1 (79825abcba525fcdf90b791dcacef51065a7a4e7)
C         2.26183967190965   -0.29934973308362    1.58090725370137
C         2.43757445800619    0.33665499172307    0.20131779459607
O         1.17762598754099    0.93051617347911   -0.14542594084552
C         0.91561981336879    1.78647396727040   -1.16451343600789
N        -0.18164677976236    2.45494481854235   -1.10077704068355
C         1.91665021316493    2.02567422940305   -2.35137243924856
C         3.41667628335139    2.30426315509301   -2.05770603400566
C         1.35412184906090    2.84649370541991   -3.53662076830644
C         1.49205546692371    1.55670174660593   -4.36572216108511
N         1.87204218522683    0.78641781408293   -3.19164829706667
C         1.88326939929225   -0.61493895161867   -3.07954408784993
N         1.81590109299427   -1.37068854230191   -4.13008439123801
C         1.83970213564543   -1.27636560242821   -1.71500337538833
C         2.88681165436952   -0.74704819533007   -0.79131958471298
N         4.11092397740350   -1.18402313994406   -0.80264816439624
O         5.03272542114829   -0.81411688077273    0.16728609488476
H         3.26115711559054   -0.59417660138015    1.92033607656634
H         1.66812543052932   -1.19202635847732    1.36427951747827
H         1.85615166738687    0.38469319267345    2.33436090495628
H         3.32572639408395    0.97852097183323    0.21756688040964
H        -0.75846467227998    2.11339358499882   -0.31953542625593
H         3.89592490158167    1.66964255089537   -1.30094579637631
H         3.72211516435950    3.34654762254149   -1.90661326961680
H         3.97859981829538    1.99416480917150   -2.94276892762325
H         2.02982286524263    3.67921874083904   -3.74306127863817
H         0.38627804724705    3.33141686636085   -3.35380248802963
H         2.31676462661742    1.54405884283165   -5.09152994001197
H         0.51740545254985    1.19725671303104   -4.69748155056729
H         1.89686684006549   -0.88743787588062   -5.02172398126399
H         1.85060831879107   -2.35965718916162   -1.90151200857690
H         0.80929005757660   -1.15406352824908   -1.36775438757190
H         5.80019479698024   -1.39173196386237   -0.00893789707452
