32
 energy: -49.287876032727 gnorm: 0.119924485853 xtb: 6.4.1 (79825abcba525fcdf90b791dcacef51065a7a4e7)
C         2.20679719205021   -0.77843023954348    1.45486475775863
C         2.39145823597139    0.13129563059337    0.23956604663247
O         1.10861778046867    0.66370327766994   -0.12269762572659
C         0.93778474880586    1.55084885158776   -1.13444816312479
N        -0.24685571444712    1.97086714644135   -1.40853067241453
C         2.07650288205403    2.00397088040431   -2.11725761969674
C         3.46878350448754    2.28231568607580   -1.48637821223317
C         1.53191053185134    3.10969889001977   -3.05308941498578
C         1.49555562892971    2.00498086316167   -4.12466512441008
N         2.00887618770858    0.98999710312965   -3.21775463381015
C         1.88878482485946   -0.41047550026701   -3.24511767817911
N         1.63596687911350   -1.15776289967383   -4.27321081214713
C         1.93644517633005   -1.23258202027737   -1.97105957659611
C         2.87823526266064   -0.76237602019943   -0.91193504100026
N         4.12297153593419   -1.01297783459903   -1.19006592026549
O         5.04832722667488   -0.57066607058696   -0.25443876673805
H         3.19987177082487   -1.19971520438773    1.64745765673721
H         1.49438988971905   -1.58782241115029    1.27140936419491
H         1.94246581473712   -0.30419458625749    2.40640002038763
H         3.13424499733122    0.89606845339091    0.49345617054896
H        -1.03246213578946    1.58009037668487   -0.87017144811182
H         4.07602336813956    2.81945664206783   -2.22654573720862
H         4.04546431025681    1.35237218922819   -1.41480167717045
H         3.18561014469132    2.84657862179839   -0.59381137168044
H         2.21787825478039    3.92957678303764   -3.27640322322532
H         0.55217817477477    3.45712506907692   -2.69994045327619
H         2.14951676990925    2.13457719405510   -4.99795865148427
H         0.46963143761240    1.84775488705653   -4.45928014569542
H         1.24233029834382   -0.71083338202147   -5.09808175046327
H         2.35235465081264   -2.18045946934151   -2.34115786291959
H         0.96825271102985   -1.36590413455954   -1.47900543869645
H         5.88460487865427   -1.06574445218795   -0.35056580447400
