32
 energy: -49.293540123760 gnorm: 0.117074817324 xtb: 6.4.1 (79825abcba525fcdf90b791dcacef51065a7a4e7)
C         2.28629922906482   -0.67288311507050    1.50221168386305
C         2.36828047548564    0.07753693855033    0.17224904894419
O         1.06836244877684    0.66627231933151    0.01740638938401
C         0.88216690751041    1.59451822632384   -0.95395402466705
N        -0.25175766980084    2.18849185617773   -1.08170362338543
C         1.96275920814129    1.94070444622112   -2.04041078048106
C         3.38410110151062    2.39163328131029   -1.60408479667822
C         1.40925218710860    2.91307142530265   -3.10958280500242
C         1.56857393099203    1.78901184825630   -4.14934467709144
N         2.12983305939057    0.92148717633696   -3.12534963985068
C         1.87626299641151   -0.45290403823028   -3.27781347049530
N         1.68715113978076   -1.04430812244655   -4.41527062387127
C         1.87345301939723   -1.21786730547232   -1.96778370076080
C         2.91387999346941   -0.73952939605217   -1.00939360988217
N         4.12618866540744   -1.16763863110131   -1.20059136172761
O         5.17257070510359   -0.71853968727604   -0.40641520224594
H         3.23081349183763   -1.06756902853843    1.89321806773497
H         1.57824578193310   -1.47339717920464    1.26954608243345
H         1.82985558389887    0.01666802580827    2.22079940295522
H         3.02820650824639    0.93422970037761    0.35013939073226
H        -0.89114000101630    1.88885804934569   -0.33262125058272
H         3.16343865125258    3.09574499284306   -0.79128506627358
H         3.85325968549114    2.98247934793306   -2.39986743109602
H         4.12293762779615    1.61785436742784   -1.37904672046791
H         1.91397493886929    3.86594371706917   -3.28252749059227
H         0.35989864002585    3.19187462087460   -2.94703885501620
H         2.25187611777497    2.03558038553929   -4.97360437692796
H         0.59440239359365    1.45644727562911   -4.50934231346652
H         1.70213359739457   -0.48310615566105   -5.26376086698865
H         2.22229946708268   -2.22440333753318   -2.23910723447653
H         0.85778054285030   -1.17584279860973   -1.56289844321204
H         5.99400722503812   -1.18049544348529   -0.66242739559622
