32
 energy: -49.286795980136 gnorm: 0.132378990533 xtb: 6.4.1 (79825abcba525fcdf90b791dcacef51065a7a4e7)
C         2.08856749984287   -0.92986413055274    1.28094294689235
C         2.40972376875739    0.07336310950763    0.17231966115237
O         1.12412293582032    0.64213932071992   -0.11767453499946
C         1.02893497512585    1.72285636671215   -0.93182456617380
N         0.11735867407530    2.61430062461993   -0.76075321852537
C         1.98439167018087    1.91989906134566   -2.16316110371730
C         3.46688832218468    2.28155957629552   -1.87103893513681
C         1.32691303397903    2.94307800150824   -3.12014758371537
C         1.19658185875797    1.82870069097671   -4.17427048842781
N         1.91606771784920    0.92981533324248   -3.28515750391285
C         1.93374045599678   -0.47506287933189   -3.33514841107997
N         1.66689866662987   -1.19322478054771   -4.38031338263189
C         2.14239132931361   -1.32686106116049   -2.09730376528732
C         2.95937399766250   -0.80822284165063   -0.96004357311421
N         4.21915221379920   -1.11689859010268   -0.87516380322278
O         4.96115866934861   -0.44531437239861    0.08698071840413
H         2.98538640421380   -1.15342520289123    1.86959094571407
H         1.73433622658400   -1.89378310784775    0.90454402571123
H         1.31017573718277   -0.42943348549923    1.86734326094424
H         3.24026244243380    0.77431285693153    0.31354576594338
H        -0.36538733691083    2.41699043401010    0.12679372142042
H         4.02054907770297    1.34448688832863   -1.72798939025707
H         3.49962883323538    3.00542005630592   -1.04797579726322
H         3.68892267160637    2.88842931340516   -2.75289224122102
H         1.91294810272177    3.81297781052043   -3.42421625641813
H         0.36533332344170    3.27918173132202   -2.71064376602852
H         1.81661632203658    1.92976983821689   -5.07562739316044
H         0.19544029040244    1.52843554740626   -4.48533973521605
H         1.56052276974068   -0.67347925045162   -5.24844734289648
H         2.57190463307038   -2.29167722982481   -2.40238272076691
H         1.17264277396956   -1.45781932196982   -1.60768513934659
H         5.88922448228628   -0.58968030132470   -0.18051815808120
