32
 energy: -49.290574626301 gnorm: 0.128182906799 xtb: 6.4.1 (79825abcba525fcdf90b791dcacef51065a7a4e7)
C         2.28259060925181   -0.83051720863838    1.53213072310279
C         2.33637163722026    0.00895867316138    0.25500909893401
O         1.08896154836059    0.65595155052030   -0.03780615414869
C         0.98311143157247    1.68617708798979   -0.91375216623618
N        -0.11111071133836    2.35475321012578   -1.01667681733035
C         1.91402658928362    2.05308240857018   -2.12482211095473
C         3.38387737851220    2.29554628743225   -1.68359663601625
C         1.34625602982086    2.98711202061099   -3.22036839650952
C         1.50313831184629    1.82036043859047   -4.21237484636195
N         1.95355913634583    0.94991413543333   -3.13737670296043
C         1.92146517204773   -0.45046174842415   -3.25742487511736
N         1.76476044346641   -1.15693254959108   -4.33244743375573
C         1.89506039469473   -1.27304889913740   -1.98305920007321
C         2.86280068405190   -0.74908804539857   -0.97372734830437
N         4.11156288635310   -0.98469819329566   -1.24687063254683
O         5.05227720355015   -0.56066521665891   -0.31812221376202
H         3.28382565391431   -1.01605767475342    1.93694337161628
H         1.87019893842384   -1.83363817195120    1.39079009819380
H         1.75166794953806   -0.24481162170107    2.29058967459968
H         2.98199046774072    0.83771122265192    0.56712346332535
H        -0.67296586049178    2.06117604432478   -0.20559985850672
H         3.84812227901724    1.31852720949955   -1.49646294304355
H         3.42753597081431    2.95479779035228   -0.80840509060949
H         4.04742381009012    2.61916722339509   -2.48996565234820
H         1.97310238210641    3.85606503590762   -3.43156697464454
H         0.29909098827345    3.23946798479839   -3.00810330418170
H         2.25269566286310    1.93190986079723   -5.00787624762120
H         0.58342103894740    1.56612665893427   -4.74028866044273
H         1.80125119349894   -0.61941108436103   -5.19549257694491
H         2.16936915303432   -2.30252860597290   -2.25389370051836
H         0.87014797635795   -1.24251486358661   -1.60107631171359
H         5.91733260177630   -0.93755690502996   -0.56978694248004
