32
 energy: -49.286782675149 gnorm: 0.137999416178 xtb: 6.4.1 (79825abcba525fcdf90b791dcacef51065a7a4e7)
C         0.81167353603424   -0.49392688529858    0.61997467355366
C         2.01145869869743    0.34689781912826    0.18158995115707
O         1.42426127403999    1.25201722641804   -0.76515738325557
C         2.23977353252849    2.06595457074871   -1.48090598601691
N         3.17122818918144    2.87713144061214   -1.12133139669549
C         2.03147786607966    1.99698158451054   -3.03646652365415
C         2.79638531444938    3.11376696559764   -3.79911780055548
C         0.50992554964907    2.03981277612875   -3.31582370792479
C         0.59730717913474    0.61555144987878   -3.89361452186147
N         2.00852323588613    0.58701543665255   -3.54171734791353
C         2.53772017956641   -0.45596190689570   -2.76156156155296
N         2.22181457024734   -1.71265016302326   -2.77796664663389
C         3.69088819780503   -0.23453450813011   -1.80107829263628
C         3.16180623130810   -0.47181923322992   -0.42500590362796
N         3.80009967149842   -1.34263464349701    0.29872637943811
O         3.25655822044577   -1.47803352604026    1.56898259216082
H         0.02695562412701    0.18729569429170    0.96771560082673
H         1.04450829802299   -1.13878392403125    1.47217365218365
H         0.41073201384701   -0.98023650534034   -0.27609381362155
H         2.41298887844227    0.89484710334645    1.04158699727411
H         3.23837107500201    2.83356683428428   -0.09502318554049
H         3.78097139304127    3.27999903567630   -3.34297553574974
H         2.16990800372676    4.01086330834172   -3.72684617804496
H         2.81097786601615    2.88829768271075   -4.86879346271389
H         0.14084340253755    2.82963037664283   -3.97353721379205
H        -0.01239708824874    2.18727344582889   -2.36150246113100
H         0.40167531058001    0.52995648435607   -4.97134530634698
H        -0.05091622468948   -0.05414591809599   -3.32747008569751
H         1.36491557747617   -1.96622811887303   -3.26431030010225
H         4.09064864849211    0.75295167309173   -2.07216441859998
H         4.54091981120169   -0.86628585076388   -2.07607864677413
H         3.79955602008340   -2.20095443452878    1.93809243005655
