32
 energy: -49.286999121314 gnorm: 0.138177794395 xtb: 6.4.1 (79825abcba525fcdf90b791dcacef51065a7a4e7)
C         2.15187694913086   -0.99256301428889    1.27047682060120
C         2.61437398346902    0.11325184076503    0.32078118122284
O         1.44512159425602    0.92418319841302    0.13207067468987
C         1.07459835445714    1.64662017078876   -0.95450543157817
N        -0.15207070027219    2.02026619360650   -1.05737063899504
C         2.01131198100733    1.94724072602788   -2.17929429542719
C         3.31024659121179    2.59757948240298   -1.62815153813488
C         1.29861695055697    2.75617653703648   -3.28955778944074
C         1.71522547378692    1.68558137518072   -4.31438042768728
N         2.16420530537127    0.86315042080271   -3.20163556273188
C         1.74332973144794   -0.47819161788337   -3.21426458718344
N         1.39699468183185   -1.16216791127036   -4.25904175179891
C         1.81539326921346   -1.12386873323486   -1.84340259179901
C         2.93362305743915   -0.63675309460277   -0.98195757426475
N         4.15805631923429   -0.94099487752693   -1.29457005456010
O         4.98124699811384   -0.50187818766544   -0.26653568627362
H         2.91787082860819   -1.68095077784319    1.64483737162834
H         1.29337980052796   -1.61964863148197    1.01349043380965
H         1.85296504045150   -0.42012488145369    2.15543791979482
H         3.50430956217149    0.71148794606342    0.54705105836254
H        -0.72318230066793    1.73164139370501   -0.25099489159865
H         2.97806412775646    2.99792649803099   -0.66146353183049
H         3.77630739816564    3.37183230187255   -2.24927853055890
H         4.09278358703383    1.87211664862956   -1.39025473976285
H         1.71693877128855    3.76406022180317   -3.33195900282804
H         0.21682761816749    2.75967793268870   -3.10243695110159
H         2.57940477096326    1.99292511884247   -4.91922416186872
H         0.85033883505064    1.33946512221257   -4.88128634162880
H         1.42545414377164   -0.63811691315143   -5.13063135018026
H         1.87168510804852   -2.20616298307026   -2.02750981470957
H         0.84736236926846   -0.88345035312018   -1.39350938501075
H         5.87369096022437   -0.77266268341587   -0.55623010285223
