32
 energy: -49.291198879485 gnorm: 0.115691935794 xtb: 6.4.1 (79825abcba525fcdf90b791dcacef51065a7a4e7)
C         2.07267484349681   -0.45707574404004    1.62345344147454
C         2.40095877134421    0.40388840483174    0.40295263941652
O         1.25414793742593    1.21032171633969    0.09495473202655
C         1.06496107414264    1.74614533324568   -1.13669119286778
N        -0.13519952142160    2.02919378466856   -1.50330777430792
C         2.03401587252266    1.89884803486759   -2.36369062293157
C         3.49790858511640    2.32836598482746   -2.06964567610286
C         1.44420015190981    2.72542788607803   -3.53154316440902
C         1.45354409203156    1.46289298282150   -4.41240434072985
N         2.07521667050105    0.74094138987515   -3.31309283183782
C         1.91875812126596   -0.63352701065383   -3.06239070023751
N         1.95710885229877   -1.56355009137551   -3.96400989290151
C         1.75305077447942   -1.12692045648127   -1.63744905257086
C         2.79696291742036   -0.52417651078286   -0.75611244633113
N         4.00290246018512   -0.99786124886608   -0.86031911974418
O         4.95438635801442   -0.52192955396264    0.03158246316578
H         1.01012535388589   -0.23425011374253    1.77213930261996
H         2.70496603217405   -0.24386934464310    2.49008289848086
H         2.16796451395662   -1.53199779956800    1.43463516329676
H         3.25575488832150    1.07168580368690    0.55928584702582
H        -0.87150773857910    1.94621448074953   -0.78868953489502
H         4.08545645977665    2.73048921688491   -2.90522512333231
H         3.98834333150379    1.40821119551010   -1.73013458072633
H         3.61128703672217    3.17515500003769   -1.38748070114959
H         2.19757379550507    3.45695550673385   -3.83140318095956
H         0.43528192156496    3.14836397959766   -3.43932772113782
H         2.10264573663931    1.48895027733718   -5.29845741321003
H         0.42920825238230    1.14928502538473   -4.61634994739869
H         2.01309274502210   -1.25923138886995   -4.93321768862587
H         1.75767894623540   -2.22489749791065   -1.69083523867572
H         0.77482863608861   -0.80350357036669   -1.26897695379273
H         5.81260263563528   -0.94775558652237   -0.15773297067768
