32
 energy: -49.295781077330 gnorm: 0.122199817707 xtb: 6.4.1 (79825abcba525fcdf90b791dcacef51065a7a4e7)
C         0.94348227611866   -0.73724124528320    0.44976569217752
C         1.95738552389397    0.37047012003605    0.16058138476564
O         1.35817584991042    1.23453084023538   -0.81651602828228
C         2.18372541695230    2.12788892128600   -1.41670734118294
N         3.13547129485074    2.85026356885334   -0.93998491927520
C         1.99378993602669    2.05904556399750   -2.97462200941702
C         3.03081632566997    2.95712872255549   -3.70397302702728
C         0.50149384033659    2.18777760743565   -3.36382226017091
C         0.52726657589008    0.75233632062634   -3.91955797197884
N         1.86310639324063    0.61735245614714   -3.35965795162382
C         2.32098696445371   -0.56633643444859   -2.75490989060583
N         1.82758938910951   -1.75974482122563   -2.86291972679265
C         3.53865063214625   -0.34794503018242   -1.87686939863359
C         3.12443952644070   -0.42554614336155   -0.44431424459271
N         3.86626079922454   -1.14455826923947    0.34451350076256
O         3.56227010011661   -1.16944680241747    1.69887358465364
H        -0.11723544735263   -0.46801182203741    0.50601151474546
H         1.22483609451099   -1.23048207647293    1.38456473383142
H         1.04289907138901   -1.36016185141220   -0.44593298111596
H         2.29210214828017    0.93206597593430    1.04015214384891
H         3.33474433596735    2.71777894588452    0.06124066364193
H         4.01489623926661    2.73723234433871   -3.26999038898399
H         2.77476609906676    4.00135768749216   -3.48832745624025
H         2.96415405672934    2.87166817155368   -4.79186456795595
H         0.28788711176330    2.96934303605569   -4.09604366196220
H        -0.10524125904941    2.33924867330029   -2.46147882946529
H         0.54163928780031    0.67382921554458   -5.01533716287153
H        -0.08381692878380   -0.07058545694953   -3.54728874794321
H         1.10312549328160   -1.88031662236277   -3.56699523579917
H         4.05284970347628    0.57757882922791   -2.17255501628857
H         4.15991625379281   -1.19811948867841   -2.17439442896124
H         4.30770458216690   -1.69375131684165    2.04978031399604
