32
 energy: -49.289974777727 gnorm: 0.116028306397 xtb: 6.4.1 (79825abcba525fcdf90b791dcacef51065a7a4e7)
C         2.16889532363436   -0.97355924894902    1.29187623949132
C         2.49545837817546    0.02095424609864    0.17699898812599
O         1.28499391457926    0.76420189297643   -0.02971624899066
C         0.99490362026676    1.70382078048499   -0.96396154051740
N        -0.05522812240138    2.43034909474368   -0.80811059628808
C         1.94450494769918    2.05299380362237   -2.16573041733932
C         3.26464408339842    2.69437659480005   -1.65603370196571
C         1.13129646043182    2.85806901729233   -3.20762400708682
C         1.45923673892153    1.82616803710308   -4.30198849906367
N         2.03430596966259    1.01394805247999   -3.24096505386167
C         2.00236544744420   -0.39116244442351   -3.27470634402028
N         1.81706241198621   -1.04437300214846   -4.37847697979064
C         1.94837859938428   -1.21018363322731   -1.99891467122348
C         2.99723530921593   -0.81030325219482   -1.01412926180323
N         4.19124939085238   -1.31903525822607   -1.08518239715055
O         5.02334712733662   -0.95420855680313   -0.03549870534213
H         3.02066740256574   -1.64108608297530    1.46410403312377
H         1.26244857009637   -1.46370556415472    0.92526117124058
H         1.85978366552813   -0.59352609406129    2.27178167793188
H         3.24263863032081    0.74577726699496    0.51966951746360
H        -0.59266376082709    2.19854169793667    0.03873227509891
H         3.26927583401118    2.68532925769610   -0.55830636305231
H         3.35704881197268    3.71312022056920   -2.05113070772386
H         4.12430707003941    2.10388698556958   -1.98399244356875
H         1.61247671261516    3.81040435531341   -3.44031157107719
H         0.11156337119665    3.02096019919804   -2.83492370146762
H         2.08440803585257    2.17333322186497   -5.13609829446047
H         0.74313090920199    1.16299223822823   -4.78840188037169
H         1.89610844142767   -0.49148707597007   -5.22887494290048
H         1.97030371037473   -2.27382300166800   -2.27571000812005
H         0.97313131762382   -1.05771005561987   -1.52675658371594
H         5.92598084406298   -1.14555057509523   -0.35541108136531
