32
 energy: -49.287785312928 gnorm: 0.138441349251 xtb: 6.4.1 (79825abcba525fcdf90b791dcacef51065a7a4e7)
C         2.31505803995939   -1.01293561090082    1.33849843938357
C         2.46369039777945    0.07439594149391    0.27347716896837
O         1.23792911376771    0.79098090869649    0.06279324255570
C         0.92733212473800    1.57521887325267   -0.99944524509694
N        -0.27370828317565    1.92028703305905   -1.30496036338463
C         1.89791059218973    2.10793638812140   -2.11394172408311
C         3.24980092951375    2.48515305127078   -1.44758589751950
C         1.41743236273216    3.10175649478048   -3.19858850040869
C         1.51159238337780    1.93130272353003   -4.19416369368713
N         2.14523874757869    1.09340235130075   -3.18788740946736
C         1.90785929411467   -0.29050037148901   -3.25830383591551
N         1.63037760001082   -0.93400112451802   -4.34836877374586
C         1.92570205987090   -1.11903033518366   -1.98764477686577
C         2.94007850997227   -0.61832861318261   -1.01289084550895
N         4.11439028174468   -1.15284386188404   -1.17040826869153
O         5.07316852836707   -0.94463470622573   -0.18820959493247
H         3.09003537847514   -1.77304389464018    1.18877977188593
H         1.35771036891581   -1.53407233774974    1.24795741870093
H         2.38235699646583   -0.75834041419762    2.40190899782110
H         3.21727731092772    0.76880475684742    0.66202959166946
H        -0.94024883102270    1.49405866298545   -0.64634996218983
H         3.86986752436086    3.07716406471715   -2.13326001653217
H         3.83569244554318    1.57226060014264   -1.28684585331117
H         3.18112898953232    3.07331287268068   -0.52856057086151
H         2.11253545366391    3.93143369605529   -3.34380544514069
H         0.35693088002547    3.30304318536961   -2.99830145952509
H         2.19511700325306    2.11182455478194   -5.03517971142187
H         0.54272908558537    1.51815337099157   -4.47668661689480
H         1.42342662472716   -0.32409680533534   -5.13595739624633
H         2.20299519658653   -2.08032622329639   -2.44310479021323
H         0.97827956413321   -1.09811402785509   -1.44061476103114
H         5.89417631093642   -1.33322600186409   -0.54688263301367
