32
 energy: -49.284571512437 gnorm: 0.123235224287 xtb: 6.4.1 (79825abcba525fcdf90b791dcacef51065a7a4e7)
C         2.07107806899257   -0.93277948788382    1.34688874088365
C         2.30847425074944    0.00489270490786    0.16237797980865
O         1.06391567494961    0.61489496907338   -0.21090971835826
C         0.95532181682607    1.76060629641054   -0.92882565108322
N        -0.10069790811791    2.45660104769033   -0.69361668876072
C         2.00503702184636    1.95592182070556   -2.08115494787184
C         3.44842546196253    2.35738417729804   -1.66958747916639
C         1.35859388342427    2.86742346181108   -3.15179608640280
C         1.78310015601582    1.84560649187952   -4.22216173056466
N         1.96043459314416    0.89377658848789   -3.13645964149673
C         1.87525624880131   -0.50464699337174   -3.25329436268439
N         1.79421079487292   -1.23077391767472   -4.32357572781188
C         1.84257750221900   -1.30646188274267   -1.96590176150163
C         2.87539537323640   -0.82150897572728   -1.00261832161392
N         4.14817531864007   -0.88749832488791   -1.25796724466811
O         5.04920438731608   -0.46904957630927   -0.28824136298829
H         3.03375165568200   -1.40737738025818    1.56776556781304
H         1.33000617137607   -1.70648379668112    1.12668469342931
H         1.77081215826833   -0.38378299384153    2.24612904538858
H         3.03240316114938    0.74773323376530    0.51619252725683
H        -0.63086709958390    2.15414085246942    0.13533026109731
H         4.07339771185795    2.55288903311962   -2.55066418312778
H         3.86669556083492    1.82253863307324   -0.80850140770255
H         3.37917292802569    3.38426214561408   -1.30083132357148
H         1.80655202518035    3.86337621073685   -3.15746753509591
H         0.27216523504185    2.93190527921413   -3.00754102783664
H         2.69066682168277    2.11989159773349   -4.77731252336474
H         0.92306256814803    1.59317936214651   -4.84330870791323
H         1.79594787548662   -0.74949232537225   -5.21994218814485
H         1.87535288526813   -2.37228132938223   -2.23307170175285
H         0.83454694016984   -1.23875679301868   -1.54568856055928
H         5.88720741165883   -0.60148325929022   -0.77188955631395
