32
 energy: -49.291923038020 gnorm: 0.118357446843 xtb: 6.4.1 (79825abcba525fcdf90b791dcacef51065a7a4e7)
C         2.00981218090709   -0.61901533791584    1.59034361491119
C         2.41609207576816    0.29082008032378    0.43026259919537
O         1.28047960070200    1.06983986330489    0.02543553172756
C         1.07946595819434    1.84709109523656   -1.06787336412811
N        -0.01697827341207    2.51491405818674   -1.14992295575015
C         1.96761772695028    1.92499411340684   -2.36133016175362
C         3.49733831239974    2.14491911978988   -2.20158693192455
C         1.41676211554880    2.83196739928238   -3.48780872124041
C         1.53055735542044    1.63419206320471   -4.44821644229548
N         1.66556298772774    0.77988558868485   -3.27855383691461
C         1.89140299958985   -0.60301343803122   -3.16418258670904
N         1.86782958202974   -1.48578726252062   -4.11259470047353
C         1.90603468154788   -1.13428250400386   -1.74330476161467
C         2.87070965293565   -0.60017260754081   -0.73636095320898
N         4.07184027225391   -1.08954415947542   -0.82195973881112
O         4.96448687165788   -0.59469902393736    0.11912015121197
H         2.95678958085242   -1.00774220304835    1.98136201803553
H         1.46493602045052   -1.51915184335139    1.29174694431910
H         1.47016235437986   -0.08687381170725    2.38141462799012
H         3.19591530882512    0.93080743801942    0.85847018162542
H        -0.61412571812905    2.11102934550098   -0.41507150178283
H         4.01704352326503    2.30760451995508   -3.15476507465509
H         3.85001541137579    1.22076296473611   -1.72826555639841
H         3.65406883828636    3.06954253254772   -1.63965948253761
H         2.07798440292634    3.64951131922240   -3.78281305592373
H         0.41254228013087    3.23736086093149   -3.30754977273453
H         2.44184223925424    1.65666954975797   -5.06153250798415
H         0.65493468068495    1.35111692019541   -5.03333272823338
H         1.59554619044048   -0.98972493893188   -4.95810741598920
H         2.12681781247427   -2.19726192823797   -1.91580011383373
H         0.86962526826573   -1.03975223242977   -1.40535761665296
H         5.80053933356919   -0.98018876154596   -0.20663630188853
