32
 energy: -49.292683090628 gnorm: 0.113166694124 xtb: 6.4.1 (79825abcba525fcdf90b791dcacef51065a7a4e7)
C         0.96057797327632   -0.48553976678994    0.77164746586876
C         2.09806368724431    0.37573444886408    0.22120690559291
O         1.38605049325035    1.14410211832703   -0.76012935681938
C         2.05975940916540    2.12197815969095   -1.41566357849209
N         2.85686518694408    2.98408868829291   -0.89002354633703
C         1.87851013679391    2.06441759465836   -2.97507003703490
C         3.01014924711674    2.88028771059514   -3.65894056494622
C         0.51301270999666    2.25467741072744   -3.67807387229397
C         0.42779634721971    0.73387230338519   -3.90143031626368
N         1.75064380900667    0.60980887268106   -3.30909633426413
C         2.41108911982991   -0.54636345736943   -2.85790706016788
N         2.30940342782594   -1.73687150243197   -3.35958573599327
C         3.51345760875269   -0.37196374444646   -1.83042315604601
C         3.13497141729053   -0.57319092423133   -0.40001661663397
N         3.79259402990655   -1.38601853160464    0.37223349130114
O         3.66748362266927   -1.24634334628992    1.74779128692665
H         0.29245565030413    0.27507194709408    1.19099523385058
H         1.20806374034659   -1.24350004120726    1.52034149834724
H         0.46355285358003   -1.03755041429637   -0.03361036188249
H         2.62506035956344    0.98812454883518    0.96169507064159
H         3.02005665652906    2.80973377543205    0.11131730507691
H         4.00484205756476    2.47921020406137   -3.42477893049646
H         2.92089652302638    3.89089812758960   -3.24279226772725
H         2.87970794153385    2.94009150429480   -4.74275971359613
H         0.57097060821819    2.76164312127866   -4.64360335714829
H        -0.28388043087175    2.63770022415465   -3.02726708292693
H         0.38960258420954    0.46329532375808   -4.96558787370151
H        -0.28846982347327    0.19889776366691   -3.27695238142206
H         1.52212736226422   -1.91424852402160   -3.97913525721448
H         3.91458719063388    0.63837864154725   -1.99391142721199
H         4.20876598973131   -1.17929897245154   -2.07951112037504
H         4.09900687412421   -2.02647207144584    2.14640159609841
