32
 energy: -49.284622539452 gnorm: 0.131927306286 xtb: 6.4.1 (79825abcba525fcdf90b791dcacef51065a7a4e7)
C         1.93605368735740   -1.19585206209823    1.25491208393929
C         2.30731414550822   -0.12971444651709    0.22332687815311
O         1.13442690038648    0.67076232510961    0.01369648086636
C         0.94147924188141    1.52865914329688   -1.01908352727653
N        -0.24856904372102    1.99059332641795   -1.17817930008559
C         2.11240666225958    1.94340798877331   -1.98076189265464
C         3.52279331062433    2.29916003070588   -1.43470335132068
C         1.66139584906254    3.00321488647811   -3.01439382728842
C         1.59447938006819    1.93160115543574   -4.11764551930290
N         2.03847413315078    0.97195874369245   -3.11858006581562
C         1.68458248768496   -0.38718602173455   -3.18167055468135
N         1.17474971665640   -0.88011678551899   -4.26629983265809
C         2.17974741437601   -1.33339748795627   -2.10424295492896
C         2.98524905388901   -0.63064213425330   -1.06159774802377
N         4.25804382412309   -0.77662017159781   -1.28116618651080
O         5.08304297283362   -0.17835753142683   -0.33841530149742
H         2.81346558940475   -1.77320554582474    1.56729240212792
H         1.10353418857035   -1.80434750345572    0.89030228014039
H         1.45019956246132   -0.61090989864757    2.04356810657595
H         3.03846257533213    0.48238021280965    0.76354158523605
H        -0.86341000148031    1.58711198950376   -0.45784049527681
H         4.16638158084548    1.96351558395210   -2.25826000768696
H         3.89532930274546    1.77116470642349   -0.54874809771527
H         3.63317641618814    3.38683398390816   -1.42867822200566
H         2.41735924351893    3.78335015998981   -3.12632610347776
H         0.77229759390010    3.61463537525258   -2.81199842094545
H         2.27442230701202    2.12788788536022   -4.95803299222899
H         0.58892205872515    1.80520553626422   -4.52024493235692
H         0.87252766492847   -0.33536685103971   -5.07067359578605
H         2.76891908915790   -2.08592981427444   -2.64737914049217
H         1.42777027067247   -1.91298400139803   -1.56027737574107
H         5.98528448628717   -0.34128800831200   -0.67474435724830
