32
 energy: -49.289312490788 gnorm: 0.115782556937 xtb: 6.4.1 (79825abcba525fcdf90b791dcacef51065a7a4e7)
C         2.10901961779619   -1.03560054062868    1.39811954563784
C         2.26959439520836   -0.05566505815693    0.23510880166033
O         1.09101015760881    0.73399859970116    0.01660713606069
C         1.06108617058437    1.74712845276700   -0.88479331002880
N         0.15440397457185    2.64335176464009   -0.71268646855549
C         1.96112686411520    1.89470295267101   -2.16387948262515
C         3.42672282531469    2.29050922020066   -1.83328023227765
C         1.24645677490089    2.82872669408079   -3.16978341062230
C         1.39314554246742    1.73366433146119   -4.24184634148214
N         1.97620615825325    0.85372332738163   -3.24088638696160
C         1.90525776067411   -0.55036257139137   -3.24270743301334
N         1.81827365054251   -1.13395753364766   -4.39647584856502
C         1.99675360304458   -1.37556038199674   -1.97304930028756
C         2.91431990528446   -0.79225192697839   -0.94951114783940
N         4.19531020850164   -0.84856088209817   -1.16262983702706
O         4.98249353731220   -0.27929544026888   -0.17086359299006
H         3.05123872187307   -1.55742970758728    1.59983132146387
H         1.41468853082774   -1.80808644535650    1.05538699426370
H         1.66302153262326   -0.44371417167075    2.20493186779145
H         2.97161298229698    0.71767305731741    0.56705443437138
H        -0.49567131278448    2.41033695131950    0.05074054405444
H         3.52916545803980    2.94533342399191   -0.95816916125608
H         3.88646515806659    2.87718162717821   -2.63760064848228
H         3.94239897830882    1.33049350053789   -1.74551179500510
H         1.74029517393528    3.76442004422334   -3.44037927211067
H         0.21953588359167    3.08451058155329   -2.87771712658159
H         1.95802347884057    2.12510549124887   -5.09904451197533
H         0.46358169847189    1.40185161490157   -4.70554780915867
H         2.02000458678034   -0.51166789087598   -5.17568573797763
H         2.33592404051528   -2.35049216768989   -2.35106585381185
H         1.01393328838074   -1.46724908909566   -1.50087758785030
H         5.90726549342668   -0.40755454245098   -0.45730687696142
