32
 energy: -49.287174564747 gnorm: 0.116534476103 xtb: 6.4.1 (79825abcba525fcdf90b791dcacef51065a7a4e7)
C         2.05808077357338   -1.07269880398010    1.23593506284484
C         2.36403273882583   -0.04889938838184    0.14191498243912
O         1.14007126779295    0.63601756013619   -0.16333827556331
C         1.00596390296053    1.59564013454070   -1.11254322595692
N        -0.02460644194686    2.36068598221067   -1.02571458469289
C         2.08131168707042    1.92064805763222   -2.21068253270127
C         3.49229061468581    2.27465713971896   -1.66502145773104
C         1.51631529184830    2.99699075780662   -3.16842041983310
C         1.14055789252872    1.85103351194371   -4.12528324737370
N         1.91758109475415    0.92414478073364   -3.31702035211814
C         1.76907356285644   -0.47274598738803   -3.26102135272590
N         1.14305755331343   -1.13874862637355   -4.17964820855589
C         2.38951755272581   -1.30374037843938   -2.15383923634993
C         3.14015077111994   -0.65464335961897   -1.03803019758215
N         4.41159267026452   -0.90345264500122   -0.93288340677827
O         5.04107228392332   -0.18657474370639    0.07566133938745
H         3.07116639512485   -1.44472210769566    1.42574113989281
H         1.29303405935791   -1.81393779118000    0.98781409487949
H         1.61027594743450   -0.64085710106417    2.13769637449447
H         3.07946279885246    0.62413991001786    0.62796823051878
H        -0.79005663089246    2.12711653745191   -0.37822257334788
H         3.47373118635253    3.32015036834513   -1.33079387501500
H         4.22590998209187    2.02824880733909   -2.44191554005341
H         3.79573509067682    1.61753656972622   -0.84565013104900
H         2.30221779012755    3.66298520846948   -3.53095205768058
H         0.73743486576171    3.53927249584087   -2.61654142072019
H         1.59678025453572    2.08847599738100   -5.09615100172685
H         0.08020492487123    1.60570214562710   -4.19363363524064
H         0.69022517307833   -0.49707247890201   -4.82641120894172
H         2.99945649497322   -2.05227983232968   -2.67928023841783
H         1.48561378486370   -1.76769518440854   -1.74764638563857
H         5.95566489966725   -0.51703751148354    0.16520478254457
