32
 energy: -49.292520887107 gnorm: 0.131560277466 xtb: 6.4.1 (79825abcba525fcdf90b791dcacef51065a7a4e7)
C         0.85536202485884   -1.22372059850500    0.33780151166106
C         1.67866804106572    0.03793099053768    0.07501975172903
O         1.10011493595159    1.00850041116957   -0.81021682279602
C         2.04070275763571    1.87610799104830   -1.26010789088426
N         3.04450495519795    2.48750570110021   -0.73715130841981
C         2.10021561915332    1.96202780613134   -2.82758643439271
C         3.39625848084643    2.62714583658244   -3.36779092382076
C         0.73873271721432    2.42386929960553   -3.40035439164427
C         0.67750244198109    1.02674644241156   -4.04401320793906
N         1.90362944546212    0.58958240093930   -3.39464670562590
C         2.06771073181377   -0.66285152863623   -2.77741030687887
N         1.32139495853795   -1.70756113798403   -2.95326661508158
C         3.30680911614747   -0.77794345648093   -1.90980226686300
C         3.04576096141681   -0.36727215492923   -0.49806222712487
N         4.16281730709831   -0.31678794685827    0.16463142989521
O         4.07912716738397    0.09387163944219    1.48814028080189
H        -0.21988478570235   -1.06926334207112    0.48187581386365
H         1.28090651583658   -1.72772368716914    1.21026268586736
H         0.90522180191312   -1.93121058584893   -0.49716064371589
H         1.72191453458014    0.55421350554368    1.04075881081109
H         3.06941659859947    2.51284577024741    0.29165959420738
H         4.25664593947288    1.94674672368262   -3.32421242201312
H         3.68617449002797    3.54281744163598   -2.83866610850846
H         3.20351645416430    2.97906863294102   -4.38477481041878
H         0.85471048671338    3.31691441963137   -4.01812465674629
H        -0.00968903898346    2.60539906624658   -2.61791816913013
H         0.69002525260447    0.96615942197046   -5.14095183934016
H        -0.24376253951970    0.51511641197420   -3.76345445449990
H         0.47353670912756   -1.51528570904177   -3.48173076926403
H         4.15880174202037   -0.20343966757199   -2.30028789880473
H         3.57164106463977   -1.83862244208723   -1.86383669207951
H         4.91514317601661   -0.22735096842609    1.87749435114789
