32
 energy: -49.293402348033 gnorm: 0.116538537144 xtb: 6.4.1 (79825abcba525fcdf90b791dcacef51065a7a4e7)
C         2.33206996332930   -0.99082630831679    1.28552134165430
C         2.42514860638300    0.09795849353218    0.21569152304091
O         1.15719343066480    0.76015133183905    0.09668389910422
C         0.87086853552885    1.61336482328136   -0.91815358140852
N        -0.18703439008993    2.34414749809067   -0.95947759637847
C         1.92144747201137    1.89120127789396   -2.05261545184106
C         3.27900174244140    2.47788463821290   -1.57640224548139
C         1.33037861558596    2.84000446349023   -3.12285212294265
C         1.73046995565265    1.83464451340250   -4.21792124981835
N         2.07900473949262    0.89689984151899   -3.16182697435634
C         1.93575266232344   -0.49926695186989   -3.24362755667005
N         1.74413915798761   -1.16751361595587   -4.33727353770669
C         1.83886327140412   -1.25901509994854   -1.93414295753175
C         2.87688642602240   -0.68154389494079   -1.02924407063375
N         4.10894733351923   -1.02108683180342   -1.26644223331050
O         5.02548090555495   -0.46507508534340   -0.38432082772553
H         3.19815094187078   -1.64451164844053    1.43839179686551
H         1.51764335795983   -1.64357201259919    0.95852273865922
H         2.05968665778764   -0.63811948501080    2.28631858428757
H         3.22615540614745    0.83449258599616    0.34598151821543
H        -0.75852665547266    2.29374220634543   -0.10474343863985
H         3.10627563443132    3.19079123096491   -0.75967799557615
H         3.76719841074479    2.95196825960823   -2.43627874379696
H         3.97918030233366    1.68741751518981   -1.29326432991847
H         1.75702327989655    3.84322924184500   -3.18715538022027
H         0.25049571723224    2.92017068671897   -2.94196283474145
H         2.50136632432674    2.03389551097812   -4.97496801135202
H         0.79436714074254    1.52661643993163   -4.68486653680134
H         1.81298487510742   -0.63163661616356   -5.19936629846631
H         1.91512126208096   -2.35148239264999   -2.02966793715380
H         0.78526482981465   -1.08090084108481   -1.69857054385383
H         5.89717654848821   -0.84380556603776   -0.60884978476832
