32
 energy: -49.290970947954 gnorm: 0.124966152021 xtb: 6.4.1 (79825abcba525fcdf90b791dcacef51065a7a4e7)
C         2.12591986185603   -0.88781105181485    1.36576387580262
C         2.46123821695002    0.07697727405843    0.22760883821613
O         1.29220001599755    0.90735210622752    0.16280291417474
C         0.95301208162825    1.61942768011730   -0.94071430510027
N        -0.26846219238669    1.88964689591440   -1.24053389113487
C         1.98645700240596    1.99863672545713   -2.06147523628752
C         3.45060305183563    2.34866545139666   -1.67717558200349
C         1.40537678138780    3.05519179387889   -3.03154408416603
C         1.46864088656095    1.94600794836068   -4.09723960851217
N         1.91828459702481    0.95402135140973   -3.13289537110524
C         1.82465560471178   -0.44328505131734   -3.25643736103014
N         1.63171082370166   -1.09362150295383   -4.36059571830452
C         2.00240978487641   -1.31752765947594   -2.02946629235401
C         2.91217913267160   -0.68640529598319   -1.02756244813623
N         4.15558731304558   -1.03078354325405   -1.18525250568838
O         5.09180176816160   -0.48092936878575   -0.32010286636429
H         3.04242340676231   -1.43860358547664    1.60538649171541
H         1.50878059645948   -1.63693563863150    0.86153454754717
H         1.64712148958598   -0.59846860543211    2.30768900509278
H         3.22636142786543    0.77473676226780    0.58647929828092
H        -0.85710876157829    1.42290403897962   -0.53671508351657
H         3.39709240880856    3.17411535431332   -0.95545701395078
H         4.05023886790390    2.71444996118634   -2.51926669129818
H         3.92138549691559    1.46844552212746   -1.23126960983389
H         1.96063068389150    3.98550242478918   -3.16878753826794
H         0.39165936949470    3.31257511173284   -2.69773955042463
H         2.24438152815015    2.18536119912743   -4.83753580055159
H         0.55138644294413    1.63642115007339   -4.59924356549230
H         1.55525329247400   -0.48148210890362   -5.16963677315579
H         2.32046965769990   -2.31262685178643   -2.37157825097918
H         1.03286489198692   -1.45185206513581   -1.54035651837017
H         5.94068788101070   -0.82236288603198   -0.66145143299476
