32
 energy: -49.285378188985 gnorm: 0.121492444469 xtb: 6.4.1 (79825abcba525fcdf90b791dcacef51065a7a4e7)
C         2.40391531246396   -0.97332507086319    1.35396285120808
C         2.43910749829862    0.06543031501652    0.23217830830751
O         1.22340406678307    0.81701961904879    0.09969752944925
C         0.94935394146263    1.65728688716000   -0.92923285608240
N        -0.12874415760780    2.35906536146066   -0.94023488767149
C         1.89144434561303    2.01297379218175   -2.13499626720701
C         3.27822841366118    2.52840320919993   -1.66055719742287
C         1.23328402876521    2.87202081709157   -3.24127814033998
C         1.68979249516059    1.79653187941068   -4.24373595240081
N         2.10767445806976    0.93297012183620   -3.15020385567688
C         1.83507053074688   -0.44565167353940   -3.18999379561330
N         1.79672783423899   -1.14530837357228   -4.28010443552729
C         1.76389677695141   -1.30089008185412   -1.93905164661446
C         2.79843970757632   -0.79984291313188   -0.98590963684884
N         4.05471142267636   -1.03786742248742   -1.21968763375523
O         4.94098748271302   -0.48100313625247   -0.30769096034672
H         3.38418372232015   -1.42585658386435    1.54120396440062
H         1.72444576040868   -1.77555138456251    1.05221825516861
H         2.23642658204667   -0.57022720396655    2.35877602761296
H         3.28545472532548    0.75372924127916    0.33711063978437
H        -0.83918329217334    2.14261636230347   -0.22739504147929
H         3.35091772110700    2.92715587386076   -0.64035075537701
H         3.67192226470185    3.21184835929948   -2.42238836835525
H         3.90045695680858    1.63099067950280   -1.71288086449485
H         1.50733852658660    3.92743043234431   -3.18106846806065
H         0.13575928654809    2.84879525176648   -3.22732692457912
H         2.48667122527567    2.13704937533762   -4.91911295571815
H         0.91734701937065    1.31724795692088   -4.84608351268482
H         2.11302110238885   -0.77897471009160   -5.17501562041551
H         1.88340127626168   -2.31821967965357   -2.33803065366881
H         0.84752259859577   -1.21972535019897   -1.34663341133796
H         5.75402552614519   -0.98713891311446   -0.49873817681017
