32
 energy: -49.293046006759 gnorm: 0.124986587684 xtb: 6.4.1 (79825abcba525fcdf90b791dcacef51065a7a4e7)
C         2.10804199241563   -1.02714993666661    1.28416851964523
C         2.46749811111986    0.04293172964503    0.25248623229265
O         1.23964152774152    0.73385341774831   -0.02204595316949
C         0.99723737791847    1.64528894017633   -0.99691816340121
N        -0.15746813656697    2.21215916041958   -0.98198780208410
C         1.99816413654999    1.96779791039894   -2.16398564492681
C         3.40612098709128    2.41199966765691   -1.67996881273852
C         1.50563344454744    2.94063838872867   -3.26216200330209
C         1.55639600939368    1.78623167161787   -4.27939668391409
N         2.13193385665659    0.94006514716767   -3.24550350940310
C         1.82884259404112   -0.43116928244134   -3.17957893571242
N         1.40194974043418   -1.10969852660694   -4.19775939134703
C         1.91926667267876   -1.26108653873473   -1.91292367794387
C         2.95897560707070   -0.69812320609412   -1.00084656629997
N         4.22231207999444   -0.96523788747528   -1.14969933204928
O         5.01450054839684   -0.41916289242681   -0.14891935997000
H         3.03431803968055   -1.54383347392158    1.55952460027310
H         1.35984564844911   -1.73705849022962    0.92012482784039
H         1.70914345109535   -0.58568633772482    2.20404880164441
H         3.20546761048985    0.76015443357256    0.62939795668169
H        -0.61919277531778    1.88950025146547   -0.12035204647890
H         3.97508701316429    1.72397384112564   -1.04121476070005
H         3.13562895054231    3.34154680615227   -1.16493964733616
H         3.99001778648088    2.46879679708666   -2.60251636619868
H         2.13699105561692    3.83005580615898   -3.31642763003161
H         0.49707006384394    3.25375791485673   -2.96207751356381
H         2.12227652775328    1.74644579291138   -5.22029959959702
H         0.51953992956896    1.54162619220464   -4.51243167133767
H         1.37634458084861   -0.64994840906432   -5.10499807297317
H         2.14134350031447   -2.31619459426468   -2.12705905348538
H         0.95809774191735   -1.27402923883613   -1.39016609403824
H         5.87770231319425   -0.32525380181676   -0.59587251129946
