32
 energy: -49.288850535726 gnorm: 0.129137137081 xtb: 6.4.1 (79825abcba525fcdf90b791dcacef51065a7a4e7)
C         2.47016386749990   -0.66024380351755    1.54835238073834
C         2.51560612671861    0.00606771688243    0.17262866316493
O         1.24661272489962    0.65988665871577    0.02246538284248
C         0.91451571037517    1.48957129585131   -0.99791948633245
N        -0.31272779783874    1.86582270795596   -1.08287734814726
C         1.90176437210382    2.05414994524828   -2.08166482319868
C         3.19368952284967    2.70590758857459   -1.51591633989614
C         1.24088666955216    3.00415259330965   -3.10915303186116
C         1.77777420645353    2.02775412189769   -4.17141284006811
N         2.07201418443574    1.02641575251923   -3.15804174104408
C         1.87256684102700   -0.35402618218904   -3.33437949287120
N         1.90127677824894   -0.95676264544671   -4.48120787752733
C         1.80289249003854   -1.15505068253723   -2.04796591261436
C         2.85612915495820   -0.90066255485564   -1.02045133783435
N         4.05642784004899   -1.36972011383643   -1.19014072784445
O         5.01388611134356   -1.16204431034936   -0.20654252193281
H         3.47629479072653   -1.02452757882663    1.78450498868595
H         1.65168983243820   -1.38575435327179    1.55386839256222
H         2.18759401758165    0.14109902674046    2.23986798853730
H         3.30308783882911    0.76551588443062    0.10796903055173
H        -0.99140409080809    1.52712195957595   -0.38689252568235
H         3.93932670985763    1.95169928917538   -1.23253736648467
H         2.84916156561582    3.35332762010045   -0.70066996646588
H         3.60886379684774    3.13343527935534   -2.43248918067037
H         1.67333236951231    4.00189904053106   -3.20971780254210
H         0.15396349094596    3.00599894474519   -2.95459164613819
H         2.59344788144289    2.53061562111911   -4.70891515227750
H         1.05062371690719    1.79455885019177   -4.94992411055746
H         1.85166155595100   -0.34824293484824   -5.29505670034048
H         1.68141348019641   -2.22045737105127   -2.28999175245723
H         0.81454883223363   -0.90592313242967   -1.64996968965724
H         5.73763045637412   -1.66105889235061   -0.63184464250147
