32
 energy: -49.290334227917 gnorm: 0.120703820031 xtb: 6.4.1 (79825abcba525fcdf90b791dcacef51065a7a4e7)
C         2.04581100893310   -0.93740381409399    1.35684086232980
C         2.48894565907057    0.04491429436417    0.27179034312133
O         1.30640778596930    0.83709993196604    0.08626788830988
C         0.98969413252975    1.72947734838376   -0.88491969658233
N        -0.11997605363177    2.37769058548550   -0.94289623961976
C         1.86964201212244    1.93431001605242   -2.17008437720110
C         3.28543973255081    2.30996087444949   -1.65207544697321
C         1.30711660860516    2.92660457236311   -3.21598737600366
C         1.58236507866933    1.87555240492323   -4.30664118057285
N         1.88221350810310    0.90877527034071   -3.26183997609905
C         1.77609610465932   -0.49268361118719   -3.22798320211009
N         1.69722062277881   -1.34019674813149   -4.20513774625674
C         1.95727903116030   -1.24487164503980   -1.92309217182327
C         2.97867386963460   -0.70332266167456   -0.97795498049401
N         4.21745922244709   -1.01228742914162   -1.22183621833039
O         5.18185595995315   -0.51348690821860   -0.35670155253760
H         2.78008611152372   -1.57504442857040    1.86184054567850
H         1.30273575432972   -1.59135515689183    0.89156401680229
H         1.63783835321824   -0.36934555040249    2.20008341988799
H         3.24368072096309    0.79632714492467    0.53029286829179
H        -0.77230674000328    2.25187224943112   -0.15654453276085
H         3.94970945395682    1.44590987919572   -1.78349173122570
H         3.36085016405783    2.76282364038001   -0.65623035929367
H         3.68174990450301    3.04535801335792   -2.35733048725221
H         1.87139053235014    3.85942840914391   -3.27966752933518
H         0.26192231218080    3.17200755399242   -2.98655135223187
H         2.47711978126281    2.18287878008997   -4.86527029750054
H         0.76333758120694    1.65063785333221   -4.99061125844981
H         1.67733136152443   -0.79708486295843   -5.06522013972372
H         2.26354337494309   -2.25692603819033   -2.22371344326512
H         1.04247076600351   -1.37965388802343   -1.33807226097914
H         6.06456440724943   -0.80356711024269   -0.65733853545532
