29
 energy: -42.046229034144 gnorm: 0.253049061940 xtb: 6.4.1 (79825abcba525fcdf90b791dcacef51065a7a4e7)
C         0.85395441425357   -0.25780849983156    0.12815071801837
C         2.00515111551536   -0.65295307501695    1.03621441944471
C         2.01524792803444   -1.85842070325810    1.75352576085269
C         3.12066699414615   -2.44182130268064    2.74983778736866
O         3.63456174272619   -1.67962650891814    3.84719697749088
C         2.72240861601631   -1.28981159823584    4.99235871498753
C         1.21113958682305   -1.04884249649893    4.88329075569911
C         0.35454335313156   -1.48590170659788    6.04617974711088
O        -0.94959913482686   -1.71226071754428    5.54539628044100
C         2.14059816774049    0.09166005201349    5.05428884299310
C         2.38115180484706    0.80898806244399    3.87564426773632
C         2.76529860518606    0.98320814731331    2.64190308127302
C         3.10461794053439    0.61399197508729    1.20700050737168
N         4.45324251220171    0.16140927530546    0.98698857175473
H         0.46450543697658    0.66441789561137    0.57013445771667
H         0.12018019167302   -1.02643983096782   -0.07852039250965
H         1.22537274802228    0.13014615440146   -0.83555634636007
H         1.15545928658211   -2.51164407536305    1.55369547465183
H         4.09392495866025   -2.53046363039559    2.25516030998269
H         2.86638465525656   -3.45568077976778    3.08828480782491
H         3.11007519779557   -1.76834473176287    5.88512612983997
H         0.74460087297825   -1.20321303328256    3.92025256091754
H         0.13721777624688   -0.73170945206742    6.81218582002952
H         0.74223979098231   -2.38360266331797    6.54330334045877
H        -0.91312480667844   -2.41117108877805    4.87265046833849
H         2.27033901812237    0.56997706685404    6.02030953607068
H         2.81555097380576    1.34710681969467    0.45189451829236
H         4.54931318124885   -0.49088853070453    1.76528347319897
H         5.16878052925593    0.88615262854390    0.99755291341273
