29
 energy: -42.044513950353 gnorm: 0.245927274031 xtb: 6.4.1 (79825abcba525fcdf90b791dcacef51065a7a4e7)
C         1.51199445988581   -0.60352235339816   -0.50668190139551
C         2.34539667775329   -0.83528486882171    0.74139648108628
C         2.16842588993000   -1.96887668656605    1.54851520368305
C         3.03450518349030   -2.36093511143894    2.83348294616171
O         3.36472412519497   -1.31387077776356    3.75208926899641
C         2.38324546717275   -1.04966161840902    4.87559619614859
C         0.87447355422653   -1.26056526929700    4.69387518178991
C         0.03466668264764   -1.69544890048520    5.86975338154966
O         0.67917300210226   -1.72319264603441    7.12937711907853
C         1.43390398908281    0.10815310647764    4.78063269800824
C         1.61648753183033    0.79074829617022    3.57135363117942
C         2.22734732307297    1.00491721158724    2.43953184954473
C         3.05436297495471    0.61617478561352    1.22490098566979
N         4.45680802984756    0.39503785975352    1.46211584864151
H         0.65322466508636    0.06490563002244   -0.39161615194136
H         1.02095754947661   -1.44776974437960   -0.97365168177936
H         2.26294407721071   -0.21994867604214   -1.21811538691390
H         1.54461746645478   -2.81132028622954    1.22137417181796
H         3.98075677740414   -2.66153734450467    2.37083777514305
H         2.62193837657436   -3.22306985524412    3.37535862694227
H         2.86399990675287   -1.26260752984808    5.82419639507969
H         0.57042356026100   -1.68973162185107    3.74925824179313
H        -0.14104998176652   -2.77443086083398    5.78187152690817
H        -0.94203467113258   -1.20551569127197    5.96633127180879
H         1.04490804875010   -0.86627727049986    7.40200677826930
H         1.08501599963703    0.62000897347591    5.67231463068043
H         2.89350626969741    1.34940130962809    0.43262192248787
H         4.56831966558586   -0.09265136462378    2.35104179170166
H         5.05051830820148    1.21954719671413    1.53319080711432
