29
 energy: -42.052898040997 gnorm: 0.250573067564 xtb: 6.4.1 (79825abcba525fcdf90b791dcacef51065a7a4e7)
C         3.01243000503564   -0.65901705039455   -0.86685104685242
C         2.51723490756402   -0.51443212470621    0.56138205159691
C         1.78063225929839   -1.58559044038616    1.08847417279677
C         1.08967055953571   -1.84182392396882    2.50687523611922
O         2.14826664397700   -2.34533298835790    3.32850702399164
C         2.27146488907082   -1.82388089438753    4.74564659880681
C         1.15643335895879   -1.09595510394681    5.50769927805138
C         0.98156522877819   -1.46024608901337    6.96159132885896
O         0.07547620460154   -2.52800426703771    7.16580991513495
C         2.39115142758843   -0.37584666146129    5.11937674596274
C         2.43837273739380    0.51264316400032    4.03771839483896
C         2.66993308836854    0.65188836483455    2.76216787148360
C         2.67561172537034    1.00131597061080    1.28288703402560
N         3.86059712457451    1.57749315972665    0.70335790322435
H         2.35146151413015   -0.17993908411886   -1.59563538568801
H         2.97162972904392   -1.72461139100229   -1.05333353737683
H         4.05145958106868   -0.30816400837145   -0.98731424039018
H         1.74189976852892   -2.48099948214687    0.45395713988559
H         0.31967970676305   -2.58806975169293    2.28321122545647
H         0.63353811824930   -0.95119514343632    2.96057173324116
H         2.94014786370327   -2.59681020095635    5.10862941323218
H         0.20751288246098   -0.88936358092097    5.03251383746480
H         0.48557683933593   -0.67382161519837    7.54325592376392
H         1.98485918357714   -1.67727764283046    7.34838058299467
H         0.27152060905556   -3.25206925399903    6.54962041410795
H         3.10555369893984   -0.15408942558421    5.90631324692875
H         1.81999965531111    1.64555837925320    1.07293028964324
H         4.79181512343578    1.25313990255495    0.96430418259124
H         3.86423170486397    2.59072228861149    0.80686013836881
