29
 energy: -42.010668583316 gnorm: 0.251348988002 xtb: 6.4.1 (79825abcba525fcdf90b791dcacef51065a7a4e7)
C         3.49508655327920   -0.33235672522342   -0.73504279503414
C         2.61309875068354   -0.53774688188342    0.48392610124654
C         2.27540638753958   -1.83378133864278    0.90111701270560
C         1.34970333056743   -2.23478594637332    2.14096152188898
O         2.19568840452867   -2.67490272290249    3.20859081383585
C         2.36484696697697   -2.29222000165235    4.66472060959854
C         1.30904076142050   -1.45642228624823    5.39998314125044
C         0.87765080223348   -1.71217914233021    6.82321188047771
O         0.26855040730639   -0.56046450165114    7.37580591699742
C         2.61618575524042   -0.86110150357764    5.03825894257827
C         2.66049817495535    0.21471234008645    4.14255262182062
C         2.44542086650252    0.41446280290350    2.87216683084691
C         2.10863105171584    0.76260891608096    1.43141334612849
N         2.72928640518312    2.01104870777871    1.07334968315715
H         3.47399332929770    0.71577618575639   -1.04888054435918
H         3.04231743349589   -1.01262169403300   -1.44509305867215
H         4.57432352481537   -0.56080502785580   -0.75087408733359
H         2.61774982009676   -2.69408391573674    0.31073588835287
H         0.85685287742131   -3.11160105876929    1.70727035540174
H         0.69271208057083   -1.48917434138409    2.60951543639561
H         2.95900777441125   -3.07429524881369    5.12476884465539
H         0.51601442794706   -1.12214837646606    4.74553567127702
H         1.78520346494630   -1.96562027585944    7.38438689398183
H         0.15902544009642   -2.50638199809104    7.06012279091251
H         0.15092485881061    0.21258462332024    6.80052138135441
H         3.16275354924700   -0.98630741202765    5.96799170295660
H         1.03516886938141    0.87636264129632    1.27035074631802
H         3.69740634420398    1.76299857936295    1.27750617461186
H         2.42072407653509    2.93930215202089    1.35706436939507
