29
 energy: -42.024530195449 gnorm: 0.470399055252 xtb: 6.4.1 (79825abcba525fcdf90b791dcacef51065a7a4e7)
C         3.75748124984490   -0.36432038419028   -0.40163641839390
C         2.67530851177859   -0.49077982077280    0.68262726079885
C         2.25568168352631   -1.67496631792646    1.11777118414059
C         1.31476045371720   -2.13968066636194    2.29742858793171
O         2.13878909306815   -2.87354916113068    3.23246137937436
C         2.24982052097685   -2.36622429851828    4.58950878383171
C         1.20956132604655   -1.53220986227720    5.35236224856228
C         1.05456094644581   -1.83550780174480    6.80708956265528
O         0.64443699961970   -0.74861172852397    7.61359602391827
C         2.43731262146371   -0.86488583273325    4.78609598958996
C         2.34538488108247    0.16231848605712    3.68607548439840
C         2.11973127619649    0.65833393130515    2.72359859833150
C         2.01535970543623    0.92096803027238    1.18784888008379
N         2.85941889470706    2.02825374937287    0.73839504837589
H         3.70669340211930    0.68098403385184   -0.72706246974156
H         3.44652001661775   -1.07367648732703   -1.17610541428698
H         4.66802477962330   -0.59886160303531    0.14669179399435
H         2.71198405166771   -2.61766238164299    0.79142826947106
H         0.62378600685264   -2.84610775921382    1.80312647909403
H         0.71370381039036   -1.32665886938743    2.70975546826103
H         3.00773531663279   -2.88450839714916    5.21807682951959
H         0.22542950133336   -1.43733543219503    4.86651114635595
H         2.06729694995553   -1.93651596774810    7.23071899197268
H         0.27052324504762   -2.59626841675383    6.99931932331346
H         0.10257539199670   -0.06487152921701    7.22400784613059
H         3.28378947025702   -0.52326114625948    5.35809042011679
H         0.99166875807385    0.84741296104807    0.74529208489068
H         3.51770838648319    2.10471727785461    1.51745581742419
H         2.11880073075858    2.71698596837283    0.79430969752778
