29
 energy: -42.012913333020 gnorm: 0.260409494089 xtb: 6.4.1 (79825abcba525fcdf90b791dcacef51065a7a4e7)
C         3.26039039228160   -0.33757395529058   -0.90225635297293
C         2.61475543699297   -0.50650573484278    0.46177822451235
C         2.11341060297392   -1.71945161028870    0.95696037488153
C         1.63477317678844   -2.09431733051674    2.43524558263981
O         2.73223113472845   -2.32344640414841    3.32536453075146
C         2.53674410615499   -2.09669648880412    4.81053924730868
C         1.27060777537070   -1.46714108832223    5.40589992947438
C         0.80986445758712   -1.88205983130734    6.78163498707468
O        -0.21530329961239   -1.09942697784362    7.36415275647543
C         2.48357339037704   -0.64557649673466    5.18766772929697
C         2.45558957118090    0.18019120960087    4.05675950735972
C         2.11947736427535    0.36091485171606    2.81000126963750
C         2.18555911118314    0.84689840934062    1.37130154940624
N         3.13539709412599    1.88083713111357    1.05380653060372
H         2.79764235524632    0.44997230130517   -1.50488128105111
H         2.97333552216667   -1.22334988266264   -1.45446300672719
H         4.35331737752372   -0.22379769800519   -1.00103522660690
H         2.16272742743917   -2.42757350999328    0.11910558570241
H         1.12029198963904   -3.06077679334133    2.40269485631711
H         0.81630918931538   -1.37830733091424    2.59197249805516
H         3.03052745771722   -2.86125946912321    5.40039904783645
H         0.43242632365473   -1.11297942557574    4.82198838375956
H         1.68958207910327   -1.95089333896725    7.43291103555656
H         0.47357413544162   -2.89940599327944    6.54663925694522
H         0.16359980660014   -0.38979071521351    7.90751435569058
H         3.15393790605305   -0.37564264591597    5.99795352344286
H         1.19227577574270    1.23808435140235    1.14422467927939
H         4.03430374240798    1.47849879457714    0.78818338080231
H         3.01167571977460    2.40332445083170    0.18832446038229
