29
 energy: -42.014327731942 gnorm: 0.253715428963 xtb: 6.4.1 (79825abcba525fcdf90b791dcacef51065a7a4e7)
C         2.82658020403720   -0.34876979157876   -1.08286919246582
C         2.48418068232989   -0.51062874299471    0.38768750906427
C         2.04820636885352   -1.71518434666014    0.95931842252443
C         1.64891459915218   -2.16657246951486    2.43977783713993
O         2.77097714266072   -2.26554959225079    3.32318322490161
C         2.58433333308759   -2.00819068626907    4.80450185705563
C         1.30464432350257   -1.38744333145541    5.37979723066277
C         0.73290911767044   -1.91721108568024    6.67190931210145
O        -0.25348558610700   -1.13613627655505    7.31979645934963
C         2.53743933033547   -0.57660809418875    5.25079199997566
C         2.45815850422901    0.34701184244139    4.20090184065525
C         2.54460830584922    0.40707509532971    2.90130285237235
C         2.36086849083970    0.79790533027929    1.44394393552785
N         3.33234652885608    1.73113080000183    0.93665188306675
H         2.05203477495439    0.33161825687133   -1.44984758198315
H         2.81180247971173   -1.35961132294313   -1.47005480448040
H         3.88036767993240   -0.02901081522733   -1.14978594010327
H         2.12301460560767   -2.71152394706351    0.50370833529693
H         1.12239690194484   -3.11550131060811    2.29109193531731
H         0.94317060697255   -1.44132333493041    2.86762832998262
H         3.23952858331930   -2.80713119525821    5.13423842860720
H         0.58845327584139   -1.29581629938190    4.57505746455699
H         1.40210191677084   -2.05679107257544    7.52952233394296
H         0.18715833120777   -2.83359290752615    6.41557391725311
H        -0.03289480909432   -0.19701340691850    7.21125635242675
H         3.09239349485111   -0.23468028496612    6.11908173594174
H         1.40336883513260    1.09352026706650    1.01149930304624
H         4.23589544918409    1.27948647047560    1.07836180828226
H         3.52640945998757    2.63408601456856    1.36603591508820
