29
 energy: -41.984131889851 gnorm: 0.246933453727 xtb: 6.4.1 (79825abcba525fcdf90b791dcacef51065a7a4e7)
C         3.66092088430032   -0.30575181000286   -0.63870536518345
C         2.89028611629638   -0.47485576344706    0.65879171632432
C         2.30749824336184   -1.71082639629170    0.97584784723592
C         1.51293549052524   -2.11176989825991    2.30357507498984
O         2.23427735878140   -2.82564124958808    3.31316877786837
C         2.41455506977836   -2.23207581032600    4.69539693312043
C         1.27469464904549   -1.48734840971829    5.40250009677958
C         0.97043911108976   -1.82227278384112    6.84206361942937
O         0.34119215187508   -0.89544184123888    7.70684262798407
C         2.46133756267033   -0.74839605785346    4.91290099974636
C         2.39648400752155    0.17861962908534    3.86501514235936
C         1.89154379349256    0.49888546329709    2.70635051307718
C         2.01789909509601    0.84906971201003    1.23264463062355
N         2.64571780452594    2.10643971833197    0.92137481518382
H         3.17661173791967    0.40025085030474   -1.32026721166447
H         3.75137228537211   -1.22766092044194   -1.19891409107888
H         4.54492949576255    0.32941002947355   -0.45901142965430
H         2.47726717111375   -2.69976272777929    0.52969443525182
H         0.72994954824478   -2.83494239900616    2.05108966358919
H         0.94938154009536   -1.28267550718347    2.75315974493308
H         2.91950125404595   -3.03316350650349    5.22417004133985
H         0.35019968347104   -1.37981085709103    4.85234007205466
H         1.73137588705229   -2.48093213674719    7.27789009492405
H         0.10877162008245   -2.47680656212675    6.66200237121854
H         0.71916354097500   -0.00385877893230    7.63894352181033
H         2.97665451486926   -0.57591651365623    5.85285585622969
H         1.32301466177169    0.60298018989963    0.42779825087754
H         3.53409106508145    2.08569702582868    1.42220177801566
H         2.65139465249592    2.66232894317986    0.06796158874117
