29
 energy: -42.006161548069 gnorm: 0.254641284719 xtb: 6.4.1 (79825abcba525fcdf90b791dcacef51065a7a4e7)
C         1.53910907695291   -0.14198562357963   -0.67522168342175
C         2.23038872518937   -0.56761258753239    0.60811260584069
C         2.07020930761387   -1.80411132789720    1.25092139066030
C         2.22912811322186   -2.69390484515211    2.56923755978483
O         2.86015541712324   -2.47930554493882    3.83611466744398
C         2.27759488462174   -1.65096024189724    4.96298717611497
C         0.94176983100505   -0.91928472963740    5.14769881592192
C         0.16115057252109   -0.76773106609704    6.43017833428566
O         0.09216981757430   -1.80310641260927    7.39249308254037
C         2.20536382179680   -0.15431261355253    5.03802859139470
C         2.76473484897239    0.47276028015586    3.91753219655390
C         3.19203203525065    0.79795253375115    2.72937991456153
C         3.19839590643541    0.67267962492079    1.21456316492055
N         4.46529914240221    0.58893761298684    0.53635371686489
H         1.50297365028109   -0.92000373861676   -1.44392429222829
H         1.91760358373726    0.80433756256778   -1.04011347135671
H         0.49813062462718    0.05634801784965   -0.36827001464850
H         1.40874554464720   -2.41623445395251    0.62351371369344
H         2.75360790149335   -3.58881561370922    2.21731427376266
H         1.20344954321695   -3.05130107457817    2.73467134717411
H         2.76910178450687   -1.97359130088913    5.87438346228372
H         0.36232111367877   -1.01386178141748    4.23983011430992
H        -0.83236234765271   -0.36075489985968    6.20633879913855
H         0.65164351114149    0.06203425722435    6.95383240145748
H        -0.58023741188875   -2.50076415841665    7.33303557272473
H         2.57205556513747    0.12904903200929    6.01989375644693
H         2.73329112296177    1.57975492042442    0.82457074631674
H         4.98041870761577   -0.28984451793915    0.48288640995829
H         5.09278938221965    1.29017691006113    0.92606981199546
