29
 energy: -42.046691346776 gnorm: 0.231093458643 xtb: 6.4.1 (79825abcba525fcdf90b791dcacef51065a7a4e7)
C         1.16738140438889   -0.19311215680085   -0.23722765448466
C         2.08990653415861   -0.63362620674441    0.88565592165904
C         1.88727219603326   -1.88761849630577    1.48083015098227
C         2.76684814286589   -2.58275668377054    2.62016079020646
O         3.44721683385892   -1.72751756398481    3.54476358856849
C         2.72856815705588   -1.35180411865432    4.82451284011373
C         1.24229813537033   -0.99753099179415    4.96375195970771
C         0.39514971518387   -1.31084883317199    6.17257799958043
O        -0.69605219791691   -2.16633377961593    5.88932199822872
C         2.27473923425135    0.06171249920704    5.04087438546573
C         2.41204161628843    0.99710273073910    4.00751966288697
C         2.46856356760570    1.01015224492874    2.70495544298139
C         3.03000256794369    0.69434975430573    1.32819884779251
N         4.43897944995217    0.40215056987161    1.36599235988605
H         0.58598951903916    0.67754549792790    0.08130080607832
H         0.38551803464837   -0.91914679268146   -0.42024420844497
H         1.78726357993837   -0.04743726608615   -1.13818082344585
H         1.28996683007435   -2.60566446750766    0.90333062240572
H         3.51417899649487   -3.14509306036352    2.05001279960353
H         2.10791544148200   -3.26278876860470    3.17736900858942
H         3.14272267647009   -1.87486557366644    5.67961275379516
H         0.71791687830647   -1.03803076040278    4.01912750018903
H        -0.01905189528219   -0.37842253893907    6.57484640355073
H         0.96317871431128   -1.73046898393140    7.01196429834928
H        -0.34037260145853   -3.06226324824425    5.77445064685514
H         2.36018624411713    0.49840974888442    6.03123303397945
H         2.82472850001837    1.46377348582592    0.58183981414212
H         4.60379709277439   -0.44052944590465    1.91661972205346
H         5.04861894406777    1.08229352118886    1.81666346318298
