29
 energy: -42.048672054237 gnorm: 0.258421430102 xtb: 6.4.1 (79825abcba525fcdf90b791dcacef51065a7a4e7)
C         0.92499234781512   -0.14153170684692    0.06038925312666
C         2.00542166157866   -0.53841758055942    1.05090773869756
C         1.82949321021356   -1.71587272228294    1.79282300939949
C         2.95460752821379   -2.43309668462974    2.67296664162270
O         3.47196367297496   -1.73927126175942    3.81321869235680
C         2.62172138058373   -1.30635715803425    4.99009934663336
C         1.14464661364631   -0.90483554515298    4.88557138939310
C         0.24216093505949   -1.33738191741579    6.01495712021328
O        -0.59715389346326   -2.41095063449349    5.63310517911406
C         2.19034043934219    0.12855430173517    5.06587423867884
C         2.45712638427128    0.88618710150373    3.91850916911410
C         2.92739713574812    1.00300006545277    2.70803871945651
C         3.17630531135468    0.65869833840348    1.24861940475663
N         4.45780146195181    0.06745075075110    0.96539075190879
H         0.32854011711662    0.67713732402194    0.47457207585642
H         0.42316092615020   -1.05870725384187   -0.22047712205907
H         1.48416795303736    0.30860822564972   -0.77739853724812
H         1.01381830797804   -2.38546309018362    1.48919064075616
H         3.82546583375221   -2.62473994770458    2.03682750017328
H         2.57984960626327   -3.42541841035846    2.95927248046975
H         3.04422706144261   -1.71494756640723    5.90161234942260
H         0.65348850971165   -0.94089928663491    3.92307752255663
H        -0.48323082513057   -0.52178006467202    6.12173751265410
H         0.78601518644112   -1.53184945034210    6.94754079342657
H        -0.15722680754295   -3.19652968254587    5.27016891187378
H         2.28692289334037    0.61640795160905    6.03100976240440
H         2.87508164370575    1.49943585084949    0.62122250724605
H         4.62186230514747   -0.61958320032995    1.70128024515516
H         5.09558774080719    0.85299102268439    1.08164191789278
