29
 energy: -42.046878424749 gnorm: 0.256196755382 xtb: 6.4.1 (79825abcba525fcdf90b791dcacef51065a7a4e7)
C         1.21987323877724   -0.46649508896556   -0.37738024512583
C         2.14321679777646   -0.70542800746270    0.80427981518045
C         2.25303686645187   -1.92722239811616    1.48468243419920
C         3.10146080637537   -2.51401358494998    2.70566488846764
O         3.48078877580577   -1.58052422089093    3.72249024167674
C         2.64841858623097   -1.47479840579166    4.98397997430599
C         1.12966874929080   -1.26804191873791    4.91655086021088
C         0.37611399747750   -1.82290132444413    6.10034769729250
O        -0.67448344192770   -0.93179195683581    6.42435267829891
C         2.03372537437841   -0.11363992371942    5.12611546772865
C         2.26863901228861    0.67415772114574    3.99217587587008
C         2.53543895309957    0.95395327883815    2.74695662808980
C         2.87244671770305    0.73836427209380    1.28054920868275
N         4.28423166020078    0.54590811856353    1.07598016736248
H         0.47925531819824    0.28409347420045   -0.08476520591368
H         0.77698446882586   -1.38318079049740   -0.74544076047244
H         1.81924052567511    0.06422975018062   -1.13651244628626
H         1.69235209053588   -2.69253434737544    0.93169090894874
H         3.99083723846783   -3.01164877155574    2.30421363031611
H         2.49717478486369   -3.29180830572119    3.19248180513932
H         3.10896112750662   -1.99357911967039    5.81769463067621
H         0.68139231817134   -1.56364646357298    3.97814935669563
H         0.98202391654647   -1.79238486141576    7.01399072277671
H         0.09424151565945   -2.84915254048243    5.83452117162368
H        -1.13830005102470   -0.61661614081818    5.63193147144034
H         1.86864931485087    0.38669151988887    6.07544900712635
H         2.46280276324435    1.51593642434288    0.63342053415957
H         4.73219406670979   -0.03371741181244    1.78578921245941
H         4.88794596118947    1.36620570892450    1.07567525935000
