29
 energy: -42.050328205065 gnorm: 0.245596940481 xtb: 6.4.1 (79825abcba525fcdf90b791dcacef51065a7a4e7)
C         1.08540786904452   -0.45949179287901   -0.30052476317492
C         2.05524343282785   -0.63017695738534    0.85544163776949
C         1.94662814355649   -1.80196376545683    1.61892582439459
C         2.97617623114720   -2.42005582153865    2.67388467319567
O         3.57050679760210   -1.60074804523829    3.68617507184749
C         2.81727905858354   -1.33656195935135    4.97389712771928
C         1.29402293293557   -1.16695959370386    4.90445772950889
C         0.47043378702372   -1.75544629990402    6.02359711508087
O        -0.85247084260504   -1.25287053160140    6.01130658242166
C         2.16899186751337    0.00839960128803    5.12088280067949
C         2.37861673074041    0.80809431285260    3.99031907775743
C         2.49535463685557    0.90103368747347    2.69503020504464
C         2.99850229980985    0.70318555129628    1.27443099244625
N         4.39331365446138    0.34977196138932    1.31473861062384
H         0.46366198746263    0.42194852486838   -0.11608864539993
H         0.55056862035106   -1.39149001137773   -0.43189439258444
H         1.61208555859968   -0.28582094438850   -1.25427564576222
H         1.18152423027544   -2.53453670963667    1.32940499983949
H         3.78039150014843   -2.81675994009329    2.04487118144895
H         2.44193495735458   -3.22630125782984    3.19510582758664
H         3.35691636832015   -1.64194733365158    5.86375348886165
H         0.89729959034436   -1.24057252244508    3.90140093380418
H         0.86411723337121   -1.39512083994557    6.98171014061890
H         0.53805307425193   -2.85006162842942    6.04709856749677
H        -1.43683620731527   -1.59843532063127    5.31740809797809
H         2.16735153372470    0.48123979605076    6.09824418884453
H         2.86657029089944    1.46604469210012    0.50511829684728
H         4.48295537949052   -0.47439581456374    1.90902540385605
H         4.82612138367246    1.19661136968652    1.67929268686031
