29
 energy: -42.032855247348 gnorm: 0.263339583290 xtb: 6.4.1 (79825abcba525fcdf90b791dcacef51065a7a4e7)
C         3.45408422170697   -0.37451958706789   -0.72404259749053
C         2.72671553621549   -0.49848240208375    0.60318789594304
C         2.39330726532715   -1.75557031128374    1.12888611499425
C         1.22319022111159   -1.96599081158129    2.19729359870619
O         1.78969267119012   -2.76584813015718    3.24061960359115
C         2.08879272510489   -2.19882873797030    4.61335503061624
C         1.16182289495441   -1.40240889584101    5.54089930295844
C         1.22790350607866   -1.71436880495298    7.01582406045863
O         0.24709593416557   -1.12992287908749    7.85203550823289
C         2.30681855355523   -0.73799967127509    4.87650107788322
C         2.32147915521632   -0.05116135901805    3.65598203453539
C         2.35900640316232    0.82113201721894    2.68761500636557
C         2.32065877166840    1.03198017734702    1.18279737584866
N         3.30850556857772    1.94277149856346    0.66642303218580
H         2.98154995455192    0.30454164552018   -1.44035877439417
H         3.69075821492504   -1.33589400132598   -1.16185115983974
H         4.42335403884382    0.09263057089526   -0.48016055697232
H         2.53459054435589   -2.74912929644335    0.68307337207202
H         0.57663260826270   -2.68869778593836    1.68792907991465
H         0.66358579240172   -1.05781794313641    2.46031803496784
H         2.62220556783092   -3.00371963023027    5.10725217127592
H         0.17698703174837   -1.14466793055059    5.17675769180294
H         2.15255492292562   -1.31843770527521    7.45292814808748
H         1.37573655348159   -2.78241101738045    7.21766217118791
H        -0.59102359030403   -1.60317172176417    7.72560684740691
H         3.05752548562666   -0.53182333534769    5.63330109656321
H         1.28052389635871    1.16223388789691    0.87889681784283
H         4.23518818066623    1.58143951056693    0.89261650054154
H         3.24230592744900    2.86899237634077    1.08486261028735
