29
 energy: -42.053190791433 gnorm: 0.236009135524 xtb: 6.4.1 (79825abcba525fcdf90b791dcacef51065a7a4e7)
C         1.44971171891945   -0.17795988615247   -0.52041739100928
C         1.98661798233337   -0.51376704542571    0.85977751658150
C         1.65266541510556   -1.70482357197375    1.52132852568692
C         2.32016718065332   -2.39158489942819    2.80107283915514
O         3.23962485648764   -1.58567608354086    3.54560924086644
C         2.67772748324699   -1.23359117676593    4.90784343163035
C         1.18626822996025   -0.91694812672168    5.07867218511631
C         0.45135601287691   -1.44189135447069    6.28756726130968
O        -0.27936118393744   -2.60556397248037    5.94885125975891
C         2.19312715857433    0.16789989692492    5.13541305817075
C         2.38748737297673    1.00783088254228    4.03161570015698
C         2.64528199366809    0.96823203163085    2.75411322421399
C         3.09125077289622    0.66939517214883    1.33206822878065
N         4.41875736400328    0.14301642259627    1.15130249682884
H         0.95051231169294    0.79259955012020   -0.60001631714616
H         0.86159601024315   -0.99413985641002   -0.92029468476950
H         2.29187139651901   -0.03715606698284   -1.21908258989921
H         0.94657361663429   -2.39473231096208    1.04036103411487
H         2.97393737521505   -3.17679286058347    2.40632314347690
H         1.62630189616861   -2.84054708106420    3.52502094595633
H         3.22089891722812   -1.73475050678102    5.70164259981417
H         0.52812007267901   -0.92429583447186    4.22093200902493
H        -0.34867327729007   -0.77246924587840    6.62613607302289
H         1.10375109038035   -1.59749798107264    7.15559643384708
H         0.28043991411863   -3.28519989247672    5.54005943297848
H         2.42917568621727    0.59720041362225    6.10432894304233
H         2.98914640525539    1.48941101380176    0.61908095030589
H         4.53037403831144   -0.58243984015101    1.85962437507062
H         5.08743775028488    0.89303744509152    1.31771822492256
