29
 energy: -42.046803406801 gnorm: 0.255381100940 xtb: 6.4.1 (79825abcba525fcdf90b791dcacef51065a7a4e7)
C         1.44034743491856   -0.62532693752304   -0.55341835064674
C         2.35507938866926   -0.72528402572994    0.65457453131767
C         2.26377740044071   -1.86871356327689    1.46205365886204
C         3.00101562817262   -2.35560394212652    2.79410576111962
O         3.35608209927583   -1.34269573197696    3.74129666597813
C         2.40602811546814   -1.15111527061434    4.90580041575941
C         0.88079283284621   -1.26948386078055    4.78943122347309
C         0.17486729970183   -1.95736089125398    5.93205243609531
O         0.57683192783134   -1.40861624718262    7.17306566239272
C         1.53143632485161    0.06107940297753    4.77744335461938
C         1.78606487289991    0.75352482390856    3.58693402726913
C         2.24903393082841    1.10048028831056    2.41846489873273
C         3.06725941198494    0.70207238142412    1.20101596852786
N         4.43934110173353    0.38793578582087    1.50223781543099
H         0.70334754816619    0.17860011245646   -0.46367359374348
H         0.88592042779167   -1.53559264984173   -0.74304616269134
H         2.12133281424101   -0.34873294008145   -1.37618585833235
H         1.66115027827294   -2.70600061196788    1.08567569383317
H         3.92599445742427   -2.85891969215258    2.49263974967097
H         2.28611387261650   -3.01779571879008    3.30158430206688
H         2.79421267611982   -1.53604750460352    5.84252505123953
H         0.47705944650264   -1.61501893487418    3.84787071880829
H         0.35540916499658   -3.02812288613464    6.08591930799307
H        -0.90128347939892   -1.79224033863613    5.79810437507984
H         0.28151667709594   -0.48393555264695    7.16091944267088
H         1.33325656411649    0.67386360473669    5.65153501728339
H         3.00654387438496    1.42510342726766    0.38569893919816
H         4.31811071790970   -0.40450022298448    2.13296225762238
H         4.92049780228501    1.17475778082583    1.93439353738118
