29
 energy: -42.042602979069 gnorm: 0.253013490313 xtb: 6.4.1 (79825abcba525fcdf90b791dcacef51065a7a4e7)
C         1.19901231440136   -0.35640754294362   -0.34204960316796
C         1.98866336859703   -0.64101021645510    0.92342473366012
C         1.95899714698460   -1.78780255393007    1.73075177857497
C         3.02865407738861   -2.37603348925760    2.76262563103682
O         3.62335954256654   -1.56699254478825    3.78292169686423
C         2.75187186207525   -1.22404723971677    4.97383400984154
C         1.22544761594607   -1.09550090051362    5.05986232550207
C         0.42498245471243   -1.57604773766429    6.24536597833063
O        -0.93347532431708   -1.79283497230489    5.91309218087816
C         2.07805910175412    0.11526872530902    5.02871361425370
C         2.21825380855601    0.92312901562730    3.89322440345185
C         2.57932283702038    0.92520005060713    2.64036224957780
C         3.04737527505510    0.63662290806767    1.22330411958841
N         4.39987620243713    0.19558562762599    1.00364086553831
H         0.50780666416481    0.46490944489679   -0.12945889052109
H         0.55908365591486   -1.17060985586484   -0.65748198337297
H         1.85437744421636   -0.04759489679363   -1.17410909291889
H         1.14920426684424   -2.49831536580390    1.51796912018962
H         3.82811987436646   -2.72481603766338    2.10005525474773
H         2.46242202052912   -3.20923586420050    3.20111393535195
H         3.21396186098143   -1.70068234025465    5.83150808073240
H         0.70431067739761   -1.29167359659851    4.13311329095667
H         0.32372454646833   -0.86735373127825    7.07620971227229
H         1.04317118608673   -2.41233457944662    6.59432787126446
H        -0.96746561839252   -2.59265307136271    5.36397590986975
H         2.14451977469530    0.69241223258861    5.94593996426131
H         2.70928246670212    1.46093051869099    0.59289762082571
H         4.65001838169752   -0.47490265215582    1.73051039374499
H         5.05835179064585    0.96518985437340    1.11077826167295
