29
 energy: -42.039085802316 gnorm: 0.247962152054 xtb: 6.4.1 (79825abcba525fcdf90b791dcacef51065a7a4e7)
C         1.46872254084291   -0.01188606759144   -0.60535009417419
C         2.18410257135766   -0.47112194155462    0.65294501837851
C         1.78876863383068   -1.66836503595608    1.26785131649859
C         2.27535305601132   -2.35471238921918    2.62693488440450
O         2.98645103569963   -1.49962936862846    3.52826644805670
C         2.44914259775198   -1.26475314611190    4.92523002787621
C         0.94287024248482   -1.00454800130230    5.05688441726842
C         0.30814832191354   -1.37161846837840    6.37577638270118
O         0.38371504922388   -2.74178860160522    6.72180181015460
C         1.89348508485497    0.12807056504657    4.97094092156316
C         2.02499273225548    0.77120992412643    3.73372385843714
C         2.72686657542814    1.00611163768506    2.66030268740632
C         3.26898982016886    0.65465426628128    1.28444524835467
N         4.52654207243328   -0.04462534926047    1.32438192814440
H         1.02958159266840    0.99042598507804   -0.59846290527006
H         0.61895077269687   -0.67608392259438   -0.69841368649094
H         2.24655077787440   -0.12085823967408   -1.38014038682303
H         1.12512243895021   -2.33061534663980    0.69612788846161
H         2.98649413874177   -3.13607857131696    2.33790273938066
H         1.42870506302117   -2.91500798128831    3.04690269010271
H         3.22444408167579   -1.44708626950974    5.66141969479008
H         0.28019437274755   -1.23197548604640    4.23343519812808
H        -0.73779866924911   -1.04336874774976    6.40815963125557
H         0.85143296664811   -0.83909666760884    7.16607362161777
H         1.32259245384551   -2.96932850268836    6.62626216683310
H         2.09617924239373    0.77239020229761    5.82098980114277
H         3.36800695828893    1.47704528006492    0.57376193696938
H         4.43301439001346   -0.75169475229021    2.05360780968702
H         5.31358049300040    0.57062955760799    1.52285386994489
