29
 energy: -42.049897501582 gnorm: 0.258618734738 xtb: 6.4.1 (79825abcba525fcdf90b791dcacef51065a7a4e7)
C         1.34485199893105   -0.72788167658737   -0.45049657443882
C         2.06577516556774   -0.69444785963154    0.88558902789878
C         2.36580998927133   -1.92343325340007    1.49169438750087
C         3.21406959160454   -2.38276573756436    2.76621961927411
O         3.56794157405688   -1.44482318024311    3.78811209399672
C         2.55628824375150   -1.42875481309832    4.91579733073149
C         1.03751126124936   -1.27721349893358    4.76008202127819
C         0.11924716031348   -1.88937374633486    5.78922719216996
O        -0.05568399105191   -1.05383423507752    6.91797999525399
C         1.88104777590878   -0.09651748850821    5.05720545604076
C         2.16234569753453    0.72960042366644    3.96174688789375
C         2.25317721885780    0.98718050963559    2.68681916605450
C         2.80007691520237    0.76983441488974    1.28536810122516
N         4.22944960232911    0.61204071307198    1.22196908679122
H         0.66531950427439    0.12917437478792   -0.48531280311513
H         0.85666930243315   -1.66717141350457   -0.67708899571082
H         2.03498690452357   -0.50414510405021   -1.28166891284709
H         1.87938539499490   -2.78633799193003    1.01771553884071
H         4.16509504332850   -2.75993993480072    2.37495941225935
H         2.60806736084264   -3.21103433973535    3.15845597482703
H         3.07212171230962   -2.00109892902225    5.67911325763144
H         0.68787188970739   -1.40381101279723    3.74486938754165
H         0.49887944104422   -2.82179668031966    6.22427711519723
H        -0.86334481038482   -2.05873286836709    5.33191123573689
H        -0.43104115170899   -0.24533416006070    6.53349638632149
H         1.85909472930502    0.45538794648516    5.99194307240600
H         2.39898636780149    1.49428831217000    0.57438634867184
H         4.55408750228951   -0.02498220870413    1.94948333922006
H         4.66531388196461    1.53135693450048    1.26928932356486
