29
 energy: -42.001756035447 gnorm: 0.285587884859 xtb: 6.4.1 (79825abcba525fcdf90b791dcacef51065a7a4e7)
C         3.43523980583947   -0.36444103821097   -0.64465038468831
C         2.55071086507540   -0.54368384548697    0.57660034112052
C         2.22033807245478   -1.84617512549352    0.97929127061227
C         1.37264327375058   -2.10076608871314    2.31028421059853
O         2.24111613711678   -2.63984421917879    3.31246959859379
C         2.47839359424866   -2.19623800979780    4.74155580532950
C         1.18681528240629   -1.64975732712281    5.36371358868880
C         0.89539907282571   -1.94700468450867    6.81416499117547
O         0.27203595350805   -0.88759930961774    7.51551282864648
C         2.27164192335204   -0.72622221079714    4.95860407308561
C         2.18881708813118    0.04542960759893    3.79270439856675
C         2.29207297822429    0.84468319738589    2.76773091002408
C         2.16232426866990    0.94946192390831    1.25690653899722
N         3.10012336039024    2.01909842176411    1.03682655075925
H         2.98378217454679    0.40509501047989   -1.27830796847476
H         3.60282619711691   -1.37115027037595   -1.00573625264607
H         4.33793627188738    0.10465676421007   -0.21771006083111
H         2.87478572088119   -2.60534612348637    0.53070783808018
H         0.75655416329700   -2.99810026460615    2.18772843547225
H         0.92735452323842   -1.14384616598980    2.61547123925993
H         3.16097830982812   -2.90369551384028    5.19969875451411
H         0.30913759848591   -1.54750199943675    4.74069116592349
H         1.85632220462347   -1.97904442267694    7.34180298322265
H         0.38847099505023   -2.90974729430548    6.95365690006363
H         0.71490975561496   -0.14524783442338    7.07373223296135
H         3.01768854420826   -0.31954046712335    5.63450363817190
H         1.16063664451242    1.05613991763309    0.83685433689338
H         4.06654732226747    1.85955932359967    1.32149646042037
H         2.67841850535159    2.61864324653799    0.32967012716987
