29
 energy: -42.052634521443 gnorm: 0.256927633029 xtb: 6.4.1 (79825abcba525fcdf90b791dcacef51065a7a4e7)
C         0.90756369502594    0.12371842692522    0.06674706686210
C         1.99758028928595   -0.49842318136739    0.92160168012294
C         1.92492723450496   -1.77309162240137    1.50274848229867
C         2.81788835365431   -2.44954453865938    2.64291387524474
O         3.36173654458410   -1.55855197877126    3.62249914700876
C         2.50934622982948   -1.31614316728481    4.85133727003459
C         1.03708991880382   -0.89303833436405    4.76566542232512
C         0.25881679225292   -1.32758537859407    5.98326490111009
O        -0.19380280937479   -2.66830572833430    6.00362563853754
C         2.09456426705328    0.11851813835473    4.99453475112726
C         2.44630236692144    0.78532327065646    3.81416201671388
C         2.76448681499031    1.12664401466953    2.59666560005741
C         3.22167622048064    0.61672201821736    1.23969802501067
N         4.47993579286234   -0.07239542605559    1.35770048620104
H         0.71245103285780    1.13752840980073    0.42957212697933
H         0.04825084852229   -0.53251710242646    0.01319295746359
H         1.42049855450677    0.22329696629616   -0.90493891256592
H         1.06485482964055   -2.41759445969632    1.27744651802452
H         3.66526584787757   -2.89761425309654    2.11283912278674
H         2.23244583764888   -3.23866860941114    3.13450028115938
H         2.96256099061124   -1.88804230120282    5.65373413950662
H         0.55605165889959   -0.89325151298846    3.79740236933558
H        -0.64653557802244   -0.70861132704982    5.98640577625969
H         0.83948251268828   -1.15457284891943    6.89770537699735
H         0.50974931115159   -3.30668904943818    6.20331078724845
H         2.24601351859923    0.59066961476088    5.96042911904532
H         3.22694875277113    1.32782191931907    0.41174194366765
H         4.51308429107341   -0.73007029127149    2.13669336343477
H         5.25988667795650    0.57617083916605    1.44933893014748
