29
 energy: -42.047981889736 gnorm: 0.252105529338 xtb: 6.4.1 (79825abcba525fcdf90b791dcacef51065a7a4e7)
C         0.83002772218083   -0.03693790844027    0.14447251127983
C         1.93380303590131   -0.54693048948867    1.05417597566537
C         1.87992672454954   -1.74124869612825    1.78799547996142
C         2.92622213394147   -2.36098285007844    2.82536751743417
O         3.48010730547816   -1.46758223752475    3.79710432043804
C         2.60744013692739   -1.28238536189459    5.02165679133581
C         1.14962457504202   -0.86550219566433    4.78739674344467
C         0.20616278613032   -1.34148524891005    5.86461950558153
O        -0.42399515040372   -2.54016408908213    5.45366927678852
C         2.17787511353918    0.15275448822195    5.10320271023418
C         2.54555939654144    0.92219474375363    3.99216770999100
C         2.97877095138275    0.82302338527592    2.76638985980091
C         3.19991689802686    0.54159951703772    1.28912929180287
N         4.46727766847424   -0.00423141398020    0.87938567659487
H         0.30278902871631    0.84252921462299    0.52667480820455
H         0.17838775275987   -0.88778303518758   -0.00836596893771
H         1.30183123511556    0.23255382242722   -0.81571879786567
H         0.91132425959594   -2.25127943294232    1.70112008169107
H         3.77431275283650   -2.85649025207329    2.34059019622034
H         2.34906184893860   -3.12052277891080    3.37043819231758
H         2.90589483876703   -1.94036204345834    5.83054777948550
H         0.74815267966565   -0.99258841662908    3.79160522770426
H        -0.60312086921661   -0.60346698998334    5.80813360798434
H         0.69811913176089   -1.36960372923673    6.84466832141888
H         0.18502476121314   -3.27466254499175    5.27478445045417
H         2.15986581106861    0.58184354651710    6.10038583231112
H         2.93119496916144    1.43440389324498    0.72177490551013
H         4.75668634783866   -0.81799871781657    1.42205532691392
H         5.13659555428556    0.74385135966167    1.05185283893918
