29
 energy: -42.048929426138 gnorm: 0.262219333876 xtb: 6.4.1 (79825abcba525fcdf90b791dcacef51065a7a4e7)
C         1.16281310939296    0.08455184143795   -0.14956253709286
C         2.01931773733018   -0.44832891246112    0.98551926327968
C         1.76780131395693   -1.67014799234653    1.62714791308573
C         2.68121738170950   -2.43446338749384    2.69318652232159
O         3.36794937244740   -1.73512694731623    3.73652422543913
C         2.52201867172015   -1.32835946343118    4.92577445374772
C         1.03518711350962   -0.96783772161052    4.81065899496682
C         0.15248791095828   -1.27552345850201    5.99525195911483
O         0.03727563926745   -2.66505795166677    6.23759489942426
C         2.05451054021045    0.09687752291678    4.95640011842951
C         2.38067428290772    0.77037101356407    3.77248604572196
C         2.85219003596052    1.08797481620794    2.59909809874463
C         3.26810841506311    0.66419934568524    1.19987333308155
N         4.48504274370458   -0.10461704725331    1.19577950610954
H         0.78474345182600    1.02876812469286    0.25422032630405
H         0.29892204032039   -0.53715092900166   -0.34732392470473
H         1.68489251577532    0.24938672112643   -1.10740086049031
H         0.81086589268493   -2.13299534775934    1.35161870019339
H         3.46775219250150   -2.93500841128310    2.11819782204091
H         2.02979059609605   -3.22103269704995    3.09824059830260
H         2.82266422049984   -1.86505799125415    5.81901578044790
H         0.58402776640736   -1.01138274002934    3.82908353456463
H        -0.88868497389361   -1.06022860110853    5.72616315351021
H         0.46567629028212   -0.70949927779513    6.88116225082363
H         0.85964517508594   -3.02000541451083    6.61191249245176
H         2.02163346344941    0.77881076004701    5.80061698172370
H         3.18514752437301    1.47795945942601    0.47729870270438
H         4.46345924002186   -0.84604447725230    1.89598267302170
H         5.30543323877639    0.49862987843228    1.21607168500157
