29
 energy: -42.049437464289 gnorm: 0.249364841279 xtb: 6.4.1 (79825abcba525fcdf90b791dcacef51065a7a4e7)
C         1.94428532722532   -0.19054026007322   -0.88580602105944
C         2.11803287271985   -0.43699745556913    0.60249616971695
C         1.71158095415495   -1.65727583024413    1.16241333128602
C         1.87043282924209   -2.26620762393153    2.63173746334468
O         2.93374096754284   -1.88298395685086    3.51022552161689
C         2.57734775222688   -1.50274872956728    4.93282163108313
C         1.16411857616034   -1.03733897386183    5.30708439919554
C         0.59027137866686   -1.38476716907455    6.65878034822531
O        -0.03713010139697   -2.64921196952772    6.55701194183722
C         2.27210328225525   -0.05954140898495    5.20628220706045
C         2.29892680681361    0.71284085699785    4.03823471286086
C         2.49927384341179    0.88811768812794    2.76184228193780
C         2.95774849416571    0.84074521828173    1.31340845328380
N         4.36016120786341    0.64505087330853    1.05462888770267
H         1.22505388943666    0.56030400714040   -1.22706938170733
H         1.69677171083578   -1.10850907621798   -1.40349506153483
H         2.95612793867729    0.05249459956157   -1.25227605337757
H         1.30937894697187   -2.40945516006131    0.47079983853258
H         2.02348358046195   -3.34120140472277    2.48766049161639
H         0.90126439536318   -2.18482982960342    3.14282174337316
H         3.16834323596967   -2.11092020944719    5.60896135679032
H         0.44832451936194   -0.90190916020289    4.50819207564253
H        -0.23705602681465   -0.69901302168176    6.87803419747694
H         1.27023225109802   -1.29364235647583    7.51473411642785
H         0.57668797187757   -3.34527046990976    6.27219102946817
H         2.63568585509380    0.39105848313141    6.12475016100733
H         2.63646273522775    1.69199805337402    0.71062640525565
H         4.57053442084094   -0.16748664667514    1.63427606172649
H         4.86267264411102    1.48534996545376    1.33523338344895
