29
 energy: -42.044019895766 gnorm: 0.249326160811 xtb: 6.4.1 (79825abcba525fcdf90b791dcacef51065a7a4e7)
C         1.44712331936307   -0.82383059374918   -0.50028400071502
C         2.20280368565793   -0.86865087911045    0.81611680923272
C         2.36448900728556   -2.01985223110918    1.60121744522390
C         3.07715400546525   -2.37065843805722    2.98829669323547
O         3.48455891074596   -1.25987953444454    3.79416105098518
C         2.52105905091278   -1.07792242759811    4.94912167885917
C         1.01069734510643   -1.04496230793125    4.68150784595415
C        -0.01597675048074   -1.62836165901617    5.62101523418826
O         0.44756419609237   -2.07118515123066    6.88269953453507
C         1.74945973658607    0.20868447169601    4.95805723624108
C         2.07038253596236    0.93898449687083    3.80684092105122
C         2.12623654406239    1.05855816008157    2.50968203664864
C         2.81369219295869    0.65104455834991    1.21672380129429
N         4.24566627033619    0.54238300854946    1.31504720693318
H         0.72856577641568   -0.00144952407832   -0.57018457535120
H         1.03379993327471   -1.81674863656268   -0.62360966499575
H         2.17556597648837   -0.60361555758916   -1.29907579547669
H         1.77736706196330   -2.87403353325963    1.23854466095743
H         4.04423132783301   -2.83995268110412    2.77777662729406
H         2.47735821315824   -3.10249875347145    3.54666189084114
H         2.75893068694364   -1.72665133439341    5.78511263815736
H         0.64952654068275   -1.13130874109740    3.66611081078041
H        -0.56098898435212   -2.44398142159875    5.13057896742443
H        -0.76434114326853   -0.85367895643767    5.82868046580577
H         0.64615124850124   -1.25799545367432    7.37430782239619
H         1.73924119164746    0.79315102416279    5.87299452196114
H         2.60540967803856    1.29423172603219    0.35990946848632
H         4.40373337605441   -0.11317293423943    2.08037468631325
H         4.50116045620577    1.50396597260423    1.53285472013827
