29
 energy: -42.047901116786 gnorm: 0.260437854277 xtb: 6.4.1 (79825abcba525fcdf90b791dcacef51065a7a4e7)
C         1.14090920318457    0.08929941659202   -0.25719479534104
C         1.96674396195684   -0.37959635652037    0.92775519178573
C         1.68273004549034   -1.59118619788957    1.57519311127705
C         2.54490645648225   -2.42055382696436    2.63526216609649
O         3.26714314383315   -1.77930325280585    3.69185942687526
C         2.48995068868756   -1.27007021112836    4.88853315106384
C         0.99330653216647   -0.93968239381520    4.81927887442215
C         0.07677352199664   -1.35952980450337    5.94212528078079
O         0.27604186375628   -2.69744559787154    6.35815842286284
C         1.99219296529732    0.14237342594361    4.97821522896901
C         2.42552334328513    0.89186105374421    3.87725126949065
C         2.88431157078700    0.93610342401220    2.65758136044277
C         3.33949452640794    0.54060862898986    1.26230506574238
N         4.61150920945707   -0.13314347798277    1.27013637907208
H         0.70006345145581    1.05186019052289    0.01966877426252
H         0.34587135434629   -0.62612349764433   -0.42457625606212
H         1.68674503339862    0.32433904571721   -1.18671688623162
H         0.79015527275315   -2.14571355275171    1.25632148830069
H         3.28010741545403   -2.98550011595623    2.05207302782389
H         1.83751103016865   -3.14874670406906    3.05531427887452
H         2.91856575187411   -1.71642082941100    5.77924817472566
H         0.64116639161595   -1.07945733870440    3.80666270494750
H        -0.98766744458996   -1.37026353226363    5.67820885086149
H         0.24517622455796   -0.69069405753800    6.79512391663982
H         1.12136167352363   -2.68911494465291    6.83539843657457
H         2.10420673226796    0.73826956073390    5.87886861568537
H         3.30633358678559    1.40564618947281    0.59761528079131
H         4.71705851725057   -0.78502908921275    2.04754839825044
H         5.27406555738889    0.63712991745886    1.19902259273058
