29
 energy: -42.042011131390 gnorm: 0.252606401027 xtb: 6.4.1 (79825abcba525fcdf90b791dcacef51065a7a4e7)
C         0.78296032224081   -0.30735830104426    0.18348166637062
C         1.98779749638816   -0.59977510623943    1.06031264388378
C         2.09135316489372   -1.85374068207086    1.68050315168040
C         3.09918287311996   -2.44622017699041    2.77054560855580
O         3.62475790240166   -1.56320631784709    3.76718160604077
C         2.75411761096167   -1.31400303194556    4.98178344411833
C         1.24747551488619   -1.04041693938480    4.88651415595859
C         0.29778165005820   -1.44080136034858    5.98872218450873
O        -1.01031996621586   -1.76366786639501    5.55578165429876
C         2.19778992735234    0.07328818417382    5.11110949594032
C         2.55775616507590    0.78521338764860    3.95992949688056
C         2.76492177140701    0.94992196328008    2.68321801595284
C         3.14875397223642    0.60781162681786    1.25282053515422
N         4.48986093600050    0.18417941044939    0.94623865985250
H         0.21195924119260    0.52064924405554    0.61462308998326
H         0.15475735698492   -1.17538931960861    0.02916100695780
H         1.01772620315184    0.00537942322728   -0.84815382892715
H         1.29779894430825   -2.54578044415937    1.36869857974382
H         4.06511961356951   -2.77008273959892    2.36821044038109
H         2.62924875281311   -3.31050972899675    3.25971063855925
H         3.09512092477377   -1.99738762393338    5.75185826510327
H         0.83387522229739   -1.19835583085637    3.90014641948149
H        -0.07862592228383   -0.62005053063993    6.61120678986224
H         0.68076293786003   -2.24775295739400    6.62548105225996
H        -1.07560703097820   -2.38000207020973    4.80861182253959
H         2.29113301635121    0.53942388413770    6.08723469752048
H         2.92591895716618    1.40904014070996    0.54601110892022
H         4.81180747519566   -0.33983835083002    1.76000813942704
H         5.07766592363116    1.00076121914279    0.78800265343225
