29
 energy: -42.049750055901 gnorm: 0.251169300909 xtb: 6.4.1 (79825abcba525fcdf90b791dcacef51065a7a4e7)
C         1.15410566870069   -0.43116947243289   -0.33905986211485
C         2.03942631102081   -0.63085954384706    0.87843921465248
C         2.11688406571046   -1.83734040966285    1.58991228121611
C         3.08949960711660   -2.46438559974095    2.69253577447879
O         3.60110906609271   -1.63674762638484    3.74253436842008
C         2.75347042667737   -1.43483460878803    4.98193514571418
C         1.23431696554063   -1.22131932961831    4.96002662243745
C         0.40961579074812   -1.77803345374275    6.09449831359963
O        -0.79186370378238   -1.03952471998988    6.21223526408388
C         2.15037295979941   -0.06713702762183    5.11030733137193
C         2.25567243869420    0.71891197916942    3.95589512756123
C         2.40630784109400    0.96201031351018    2.68379021911359
C         2.92343408986342    0.75051787716167    1.27019375000393
N         4.31832560353556    0.42179389148994    1.13512785924631
H         0.47510333004831    0.41141456184288   -0.17618068647462
H         0.73400699189707   -1.37572310544994   -0.66041203166657
H         1.82553972400820   -0.03150251215740   -1.11792719901806
H         1.49647945350511   -2.61899601086178    1.13167428348504
H         3.92066101612935   -2.90105455234447    2.12836800893505
H         2.54000106251657   -3.27060430801887    3.19768889814492
H         3.18035203282279   -1.91432692682852    5.85610458902294
H         0.77268324029272   -1.43136703987396    4.00519393354045
H         0.83719060920448   -1.60868748487931    7.09014051048082
H         0.29461366245939   -2.84811067550322    5.88232704755538
H        -1.51024619227223   -1.24709004051983    5.59317448505947
H         2.09259359531213    0.43795574893418    6.06966058437855
H         2.71676899403941    1.49968657677446    0.50387923096579
H         4.66285070724420   -0.33406988506209    1.72710535675821
H         4.91294165891084    1.23317187424243    1.29467942831495
