29
 energy: -42.019046877944 gnorm: 0.255691779316 xtb: 6.4.1 (79825abcba525fcdf90b791dcacef51065a7a4e7)
C         0.89223416769911   -0.17737571910303    0.13239996585542
C         2.07860138207580   -0.62029684390566    0.97044917563421
C         1.89218724318387   -1.87048584495387    1.57878044364607
C         2.64247730017726   -2.60610530618946    2.78330279129291
O         3.44113062143858   -1.70254144584266    3.55463350716274
C         2.81813020801865   -1.19789113487191    4.84015798735366
C         1.32788166124569   -0.83779003812956    4.89831325163710
C         0.29382500927133   -1.26690197525850    5.91008334335477
O        -0.11645560390637   -2.60742258029170    5.71647447409855
C         2.35707960212659    0.22691312659429    4.93053169147660
C         2.40142766946162    0.93365407703695    3.72215291860886
C         2.45558570529218    1.23257681201483    2.45418182760248
C         3.20294761858751    0.59363502075321    1.29504110040136
N         4.52500006008894    0.12858660085530    1.62357097644502
H         0.09802459501344    0.17868315869991    0.79570599368873
H         0.39951769558339   -1.03537650946136   -0.30691404758699
H         1.11925713411256    0.53754609735614   -0.67663592155497
H         0.94911634358411   -2.33961889735012    1.26829553211393
H         3.21820517262147   -3.36086163983948    2.23679146464098
H         1.90170594712397   -3.08269426497492    3.43998970741429
H         3.31806747112447   -1.62923709982315    5.70057446367105
H         0.84160772952929   -0.95944096183122    3.94036230172831
H        -0.57266102624005   -0.59639895086530    5.95937103055477
H         0.89991929825691   -1.26495844570742    6.82438817191320
H        -0.79829993674998   -2.84670544057485    5.06822680845659
H         2.62952516498540    0.98641785453792    5.65699019738829
H         3.08690017793099    1.16022152397860    0.36945217579941
H         4.45201644915458   -0.57178240171697    2.36155580601972
H         5.13593281092700    0.85048029884182    2.00171096707286
