29
 energy: -42.038727302667 gnorm: 0.260781592820 xtb: 6.4.1 (79825abcba525fcdf90b791dcacef51065a7a4e7)
C         0.93846505747503   -0.02586501004857   -0.05981948908019
C         2.01592415432041   -0.58772279393789    0.85087831726308
C         1.87350870600433   -1.75550121370947    1.61494709829871
C         2.61090020723831   -2.44060739388338    2.85665098657876
O         3.35095443085214   -1.54691620285811    3.69501943129421
C         2.67220429486802   -1.07830141712516    4.96587468380941
C         1.15574151645947   -0.86023711093570    4.88411798376402
C         0.35435474242580   -1.40940983126342    6.03879432971495
O        -0.14248831230057   -2.68150191961376    5.66766258257110
C         2.07284112173183    0.29645279338978    5.00608531248424
C         2.49602348910995    0.80439109118222    3.77136099581772
C         2.66496495641985    1.05205174990404    2.50243958148097
C         3.23879566264463    0.51961044966325    1.19950893825566
N         4.51899397898405   -0.11842765293213    1.36082917504833
H         0.50221085665992    0.84943183213640    0.43115848046298
H         0.12984250878450   -0.72401671271234   -0.23487791999849
H         1.35160046229645    0.32992703596280   -1.01894557838983
H         0.97184443400177   -2.29279720862160    1.29217167035061
H         3.36474420293924   -3.14867484571197    2.49588229550233
H         1.89794632207537   -2.87382919561273    3.57158634435946
H         3.15678916697221   -1.41721703287442    5.87506489302575
H         0.54357002554225   -1.00535478843694    4.00484653962359
H        -0.57038545810835   -0.83757364088173    6.18253217377523
H         1.05592688855470   -1.44379168660399    6.88136289860803
H         0.60807939658952   -3.27454103720710    5.50229712471620
H         2.05577699657862    1.03784826266917    5.79909070223098
H         3.18481996243898    1.23916304428287    0.38064825582619
H         4.52562361274108   -0.80487643181523    2.11528863603605
H         5.19297734031781    0.61630003405900    1.56886966246990
