29
 energy: -42.032706348479 gnorm: 0.246774753214 xtb: 6.4.1 (79825abcba525fcdf90b791dcacef51065a7a4e7)
C         0.89602110976851   -0.07325741624950   -0.05362535622456
C         1.90398426316177   -0.61642957846970    0.94384496895094
C         1.94389540096821   -1.86830798799737    1.57550726493939
C         2.71935145576117   -2.49904052121072    2.82282022071367
O         3.43786076150205   -1.60533803921971    3.67971353450568
C         2.68885384655612   -1.16430654816981    4.92062218384756
C         1.20722775352382   -0.78236886694926    4.80746863993351
C         0.30316242434304   -1.23583986134376    5.92734301323256
O         0.11934606110265   -2.62864068611146    5.75667516004129
C         2.22856523382935    0.25432340822273    5.08318324681236
C         2.65928861452215    0.99714073109052    3.97668951542435
C         2.61396053159488    0.97152393776195    2.67387416520917
C         3.07970375747781    0.54081417271876    1.29257913729451
N         4.38406316213465   -0.06493063753144    1.35377022944005
H         0.36105104563028    0.76175129363842    0.40907232203509
H         0.13195809906235   -0.73577053095901   -0.43990992675535
H         1.43114428184351    0.30323078673411   -0.94193359216208
H         1.19956869296085   -2.57667325755107    1.18812396552208
H         3.31586167268623   -3.25342441583014    2.29853515647019
H         2.06749334053738   -3.06962566818475    3.49856464174855
H         2.98788880397916   -1.74398165511830    5.78714850546081
H         0.67554435611599   -0.82923297098037    3.86723052792760
H        -0.70165524154658   -0.79662466085560    5.91207440207253
H         0.87993167105408   -1.09645705183450    6.84995726946790
H        -0.11469934126301   -2.96434242748388    4.87637969754847
H         2.19016080248735    0.92839113668129    5.93346178263532
H         2.90891687026721    1.25771892986933    0.48754401562207
H         4.28867811236944   -0.78508476693586    2.06983215206238
H         4.97582177018865    0.65683959584530    1.76148173102143
