29
 energy: -42.008716420953 gnorm: 0.253925341948 xtb: 6.4.1 (79825abcba525fcdf90b791dcacef51065a7a4e7)
C         3.65866829720820   -0.42360547164300   -0.60225312259344
C         2.61413219165215   -0.44124818305015    0.49983844538177
C         2.31876605686232   -1.72113374348502    0.99222193808659
C         1.32348936397062   -2.18810323004020    2.15252751573408
O         1.98490098770409   -2.82702296031240    3.24958820432926
C         2.29421911279804   -2.14879196173556    4.56856484885271
C         1.19330329298166   -1.49086875949628    5.41059657609943
C         0.97751967075567   -1.80294014627359    6.87112303180627
O         0.73750971338117   -0.88593232812635    7.92198078484460
C         2.36106931062097   -0.70104032418133    4.95631337039914
C         2.18671467153028    0.07968039781084    3.80665942688515
C         1.82448071845882    0.79454528014156    2.77816855876824
C         2.18856383028182    0.97310187681964    1.31325742340623
N         3.11921663001077    1.90460532309147    0.73169806827441
H         3.41459253655464    0.18665075202008   -1.47720227615329
H         3.97995478568006   -1.39587489369938   -0.95353483889885
H         4.61867653066764   -0.01046985536129   -0.24884846406462
H         2.50181511387231   -2.64529031182555    0.42804368265044
H         0.67738090561246   -2.85613741535512    1.57281335036458
H         0.69342771359511   -1.50770315483877    2.74176005978845
H         2.95065468845989   -2.87815316524294    5.03055787938234
H         0.25531858709627   -1.30461019302921    4.90619233047721
H         1.95806792449999   -2.18189772792202    7.18372170475384
H         0.26172309038051   -2.63416917446942    6.87209871600178
H        -0.11651120382929   -0.43330555166893    7.83159116992972
H         2.94732910185119   -0.29367669003845    5.77434157930884
H         1.20975037519216    1.06648480143644    0.83954233542419
H         3.98553123221214    1.85188960543324    1.26759452954687
H         2.93548947183814    2.90589983095258    0.69987312957247
