29
 energy: -42.029237956240 gnorm: 0.222383359867 xtb: 6.4.1 (79825abcba525fcdf90b791dcacef51065a7a4e7)
C         3.87212934273777   -0.35767722558833   -0.35589480960533
C         2.78036419661201   -0.65075440855629    0.73475413462609
C         2.29274252873465   -1.83884571641508    0.99102842195968
C         1.32275032886931   -2.20839863892625    2.11949014093274
O         1.92527942734431   -2.91357989672973    3.22649422551441
C         2.10669166555912   -2.25264064096590    4.40846242416890
C         1.05995299122373   -1.47338465162759    5.26801858185813
C         0.99419410610379   -1.75159876792225    6.75347849805834
O         0.97588560463072   -0.70865924827526    7.71176097464351
C         2.36564742430147   -0.76359693778028    4.91732723787672
C         2.37964413571753    0.28491937935299    3.96224576032164
C         2.42169513768476    0.70839440029428    2.76515695717347
C         2.14970501700613    0.72300854216476    1.34283869207481
N         2.50234181672244    2.03307189215940    0.64606380508514
H         3.57298282545201    0.62283524768466   -0.69085925228972
H         3.95186684154102   -0.98768240423643   -1.27360838621689
H         4.92476462898905   -0.38386045833639   -0.06878616708475
H         3.03497376339624   -2.60970841261375    0.65536968046443
H         0.67579207291423   -3.01217164343637    1.72931751626722
H         0.72046473518371   -1.31244418970702    2.29965813886534
H         2.80952726223249   -2.90589519347233    4.93600895601402
H         0.08615060676440   -1.16392350291181    4.86659443646596
H         1.93105277028816   -2.22167071063343    7.00378842285056
H         0.17414751793499   -2.46420729634351    6.93402899245384
H         0.06770855270119   -0.41294599868076    7.73280622119182
H         2.95952996629384   -0.47611786253577    5.83484235750617
H         1.03131301356182    0.78674268700588    1.52152550598215
H         3.46071782978173    2.28604592954180    0.91523726356723
H         1.90138277054109    2.84382179794900    0.82561185997044
