29
 energy: -42.029669388253 gnorm: 0.270730450847 xtb: 6.4.1 (79825abcba525fcdf90b791dcacef51065a7a4e7)
C         3.74711104514106   -0.54162977607211   -0.41784899183198
C         2.70540489459732   -0.56501400719717    0.68681124577431
C         1.95199507799179   -1.67936486562703    1.08478802719797
C         0.98820598553805   -1.84690426047386    2.34890288314765
O         1.48326302410783   -2.76935250133380    3.32523974785782
C         2.21226261444885   -2.20761283017494    4.52872740393321
C         1.40426230599199   -1.28745700079829    5.45303511575077
C         1.32903019997065   -1.65847465752318    6.91377968612081
O         0.08385587973720   -1.44432125804175    7.55134486046182
C         2.66126569150149   -0.80877848761513    4.83280205790431
C         2.74936591086390    0.11089154608389    3.78015116771543
C         2.41560790988947    0.73461279416090    2.68488127280505
C         2.27142237276763    0.98391201424345    1.19241217474155
N         3.08661509324518    2.03497709355175    0.64218711472755
H         3.43289465620202    0.29346164616997   -1.05141985123401
H         3.69050531658695   -1.51071146103089   -0.89702344863607
H         4.65599712903567   -0.33556073113041    0.17261974855374
H         2.31669342267753   -2.61427699471309    0.63891377071542
H         0.10505142561929   -2.41184688068343    2.03161406916922
H         0.84615499877724   -0.84156397379220    2.76869968851823
H         2.86643788727521   -2.99723386890365    4.88209169650017
H         0.45654132473150   -0.96949075504197    5.04114482900578
H         1.95773510161492   -1.04404678617213    7.56953131729461
H         1.64410111245282   -2.69331311121201    7.09584312482091
H        -0.63771426661798   -1.52864749133592    6.90743599975500
H         3.43653340885618   -0.71104341154121    5.58660817653223
H         1.18268959262570    1.02974665414461    1.13107495332910
H         4.07706459285177    2.11373812358351    0.87299318483314
H         2.48863544213395    2.72213391572975    0.18656114274994
