29
 energy: -42.051183021000 gnorm: 0.264029394622 xtb: 6.4.1 (79825abcba525fcdf90b791dcacef51065a7a4e7)
C         2.89980222252425   -0.55364283372565   -0.89682824554617
C         2.39049337044930   -0.58924153143085    0.53331510208310
C         1.67255286618586   -1.68117170701110    1.04325590986559
C         1.17606947938543   -1.96391569480494    2.53607382593207
O         2.33773001524023   -2.11409902372761    3.35900493462668
C         2.25594624306654   -1.72316142115846    4.82046101358846
C         1.11950420188103   -0.96867990900252    5.52270932126666
C         0.98760060203116   -1.46102537252003    6.94302134966164
O         0.13938746064086   -2.59303693963373    6.98654559338903
C         2.37314020484784   -0.26703937875214    5.16218665063235
C         2.42886020521908    0.48016028267597    3.97887910250630
C         2.67538476507416    0.69157636590707    2.71611727522769
C         2.64223890437888    0.93201767993715    1.21561968203658
N         3.93223308373159    1.44195554342399    0.83103814335639
H         2.26658559626266    0.02746455445473   -1.57422957702197
H         2.98263002373847   -1.56041963795483   -1.28602190208768
H         3.92440429898573   -0.15252937761708   -0.81626598234233
H         1.54058692773448   -2.49935218724578    0.32281499256142
H         0.59930918746068   -2.89253065485275    2.46667527195798
H         0.54912573164304   -1.13874791647377    2.90098013622773
H         2.83921155251599   -2.48858731773729    5.32069887362110
H         0.13890757977291   -0.76789150893882    5.11399715844491
H         0.53276827968496   -0.73588995691467    7.62866544385877
H         1.97843807662752   -1.68868044318156    7.35499422263651
H         0.27970951117559   -3.12701501612353    6.18806569343681
H         3.05609216365574    0.05145933676495    5.94382028301324
H         1.81044196682389    1.57098351137262    0.91389356636851
H         4.70619372293653    0.79012723105255    0.95976163280963
H         4.16187003941323    2.17375088960552    1.50118859639971
