29
 energy: -42.056793888267 gnorm: 0.246833269124 xtb: 6.4.1 (79825abcba525fcdf90b791dcacef51065a7a4e7)
C         3.27624121006057   -0.52594013639576   -0.70734420054473
C         2.59661735085587   -0.54121353010164    0.65054051480605
C         1.90865528332357   -1.66510405837431    1.13154776867823
C         1.00968347639326   -1.91828446638323    2.42873495888527
O         1.72526231028496   -2.72391407636503    3.37114345114227
C         2.08495645264270   -2.11869363882497    4.71267345129394
C         1.30010222450633   -1.03231498540507    5.45945404931889
C         1.00890779200222   -1.20587421620478    6.92988652344123
O         0.09364321369765   -2.24364248469104    7.22676678527753
C         2.65322746812397   -0.74713796750175    4.92878860871316
C         2.84303791562906    0.16542199584437    3.88340120202222
C         2.60256357115833    0.79366353198124    2.76647533353008
C         2.50996551159703    1.02576496646873    1.26715611881837
N         3.56885212036182    1.83088901410059    0.71710248155831
H         2.70811740599115    0.13741290254303   -1.36667700383026
H         3.29803387091140   -1.52302116229044   -1.12839786511595
H         4.25993801034084   -0.02640968264849   -0.70862057989870
H         2.11621898386584   -2.59802286739490    0.59076201618633
H         0.10057332580804   -2.46149617013441    2.14903134954789
H         0.73054909100088   -0.94748974407870    2.86089064190703
H         2.45850736113963   -2.97529190979200    5.26313881276199
H         0.44175868457145   -0.62433838945264    4.94396140382849
H         0.47688043918331   -0.31789110267488    7.29214961310643
H         1.95500957751129   -1.41032141814616    7.44602618636311
H         0.51803477174966   -3.07554481766861    6.96176994585893
H         3.43874926486483   -0.81495003217715    5.67522875184548
H         1.53351361114210    1.46026521703494    1.04590206277411
H         4.44497138084339    1.64498170114252    1.20528120559511
H         3.27036891881799    2.77253708613515    0.46897776567014
