29
 energy: -42.051045186944 gnorm: 0.242868149795 xtb: 6.4.1 (79825abcba525fcdf90b791dcacef51065a7a4e7)
C         1.45187541461484   -0.10047477103150   -0.57759502146085
C         2.06536514872090   -0.54163504442305    0.73959164916590
C         1.71360293145305   -1.71519561162205    1.42282560917001
C         2.27092740777961   -2.38030770847523    2.76519685325251
O         3.16270905064768   -1.69178017703454    3.64830570199346
C         2.58064798330610   -1.24216572903520    4.97285323934775
C         1.10038000712211   -0.84864923367878    5.06143923212343
C         0.37840437602718   -1.37945698082558    6.27555742850173
O        -0.08574273918648   -2.69799826967968    6.05459037356343
C         2.15731767681332    0.18250025175592    5.17759930742381
C         2.41957049616584    0.93088143657864    4.02313941987561
C         2.72401374793856    0.86777239115094    2.75689684351672
C         3.11898855549251    0.64680411716352    1.30583808672730
N         4.47653663109748    0.22170412300009    1.08588853918870
H         0.89920999027177    0.84119958245502   -0.50457449423660
H         0.83734514714890   -0.92614796245746   -0.91307678264567
H         2.21101242041045    0.11559369579700   -1.34844982128760
H         0.85258333369844   -2.30922318107972    1.08869102110234
H         2.91773622870100   -3.20258247058072    2.44070201989370
H         1.41791063697485   -2.78433612371704    3.32754937800614
H         3.02517174320293   -1.92171008553576    5.69183242800034
H         0.56300095073212   -0.85275198685967    4.12328246040375
H        -0.56338052605958   -0.89752406514652    6.56466559295345
H         1.05878354003773   -1.34364113331894    7.13527180930182
H         0.64356415524301   -3.33530930293436    6.12046230509921
H         2.32547823902274    0.75428288874679    6.08512476215789
H         2.95521969870346    1.50505047883378    0.65177762665817
H         4.64985674596225   -0.54384788987821    1.73731405886211
H         5.19071873353656    0.88995026244089    1.37005435197197
