29
 energy: -42.050248094155 gnorm: 0.248119700752 xtb: 6.4.1 (79825abcba525fcdf90b791dcacef51065a7a4e7)
C         1.20417323462182   -0.51178899798281   -0.32035748088777
C         2.14780823090613   -0.73485003966625    0.84830394628098
C         2.25717224683636   -1.85614408448899    1.68408435101649
C         3.25675410940517   -2.34129461327393    2.83317542408126
O         3.53260405318465   -1.39078413950021    3.86742034270110
C         2.46983095192254   -1.12286116703554    4.91341509553304
C         0.98347720671017   -1.33781511718274    4.59965827824170
C         0.20015889512221   -1.95733980082002    5.73089223193306
O         0.32050647074977   -1.40703285761277    7.02915601518234
C         1.52968230218811    0.03241814083839    4.73382416665631
C         1.69850543518854    0.77300719549031    3.55711046202636
C         2.36215014104649    1.03772494878267    2.46645059737733
C         3.05283092197172    0.65129394701930    1.16874696097994
N         4.42263163632859    0.29281417280791    1.42790490323668
H         0.49364517695528    0.24460088915363    0.02683968855686
H         0.79579066440823   -1.46717146326532   -0.62433067408379
H         1.77552173345139   -0.09346947048585   -1.16638429141056
H         1.57450376596613   -2.67628085146138    1.42483764848408
H         4.20805828099743   -2.58657538280162    2.34876645734054
H         2.88122859932039   -3.27553238722585    3.27283131930338
H         2.75028631667901   -1.33494457048948    5.93941628088702
H         0.72893413448274   -1.66720640286861    3.60184045613133
H         0.51031534566293   -2.99984261312125    5.87157813882495
H        -0.86105562725402   -1.85381131363676    5.47318505857662
H        -0.02121638682284   -0.50295639919409    6.93824805775582
H         1.27502935428662    0.59661184671636    5.62581809567188
H         2.91660102027095    1.35756750790747    0.34788082543877
H         4.46709546243135   -0.09570143993812    2.37000019631825
H         5.03161680611509    1.09506777513060    1.27662566306528
