29
 energy: -42.011407500757 gnorm: 0.259788119151 xtb: 6.4.1 (79825abcba525fcdf90b791dcacef51065a7a4e7)
C         3.11658755251667   -0.44638367545713   -0.95643237839251
C         2.32103342657652   -0.53077862692214    0.33428211175255
C         2.02570174489525   -1.77568383792600    0.90941680645603
C         1.45244849966358   -2.27391272900777    2.31586408093117
O         2.56969377740635   -2.31558479910652    3.20987317919829
C         2.48837817763112   -1.99624446911791    4.68865111165323
C         1.23592911315000   -1.42665219411653    5.36749685454941
C         0.83600721255749   -1.89059147779845    6.74659500816286
O         0.35414920115092   -0.88377559485931    7.61662070023204
C         2.41327837052003   -0.56199598282156    5.12234865796155
C         2.35999555353035    0.24125472979247    3.97623433781984
C         2.05585475552584    0.60203512715453    2.76076141013962
C         2.33863250319462    0.85860775169826    1.28949973113490
N         3.47662067707253    1.71104599725565    1.06509714373514
H         2.61648633210871   -0.10991167587233   -1.86978171944808
H         3.65382893263497   -1.38440724568676   -1.01487176234052
H         3.87288566578305    0.28400980919085   -0.62217167254445
H         2.23060247962707   -2.60579158793379    0.22035495531803
H         0.79523794425904   -3.13157589117358    2.13619069096730
H         0.93154301589239   -1.39417023768399    2.71814204908394
H         3.35586948485453   -2.52417867005848    5.06951519973855
H         0.33154341807981   -1.31156314044124    4.78631499630464
H         1.69209863909369   -2.35496835071622    7.25084021356260
H         0.15941422393852   -2.75403087626833    6.74790102734307
H        -0.60845583438160   -0.81571851781869    7.72222750051447
H         2.82143758359864   -0.40282305005364    6.11576998165536
H         1.46703284563661    1.43067369038094    0.96661162370719
H         4.28979749985676    1.32126182789351    1.54183261805891
H         3.49870255289741    2.63648172676479    1.48987978431516
