29
 energy: -41.976590991777 gnorm: 0.340055885496 xtb: 6.4.1 (79825abcba525fcdf90b791dcacef51065a7a4e7)
C         3.68667937125487   -0.31276568758202   -0.57902074423053
C         2.72199253299509   -0.63428693374983    0.56449624668778
C         2.28439899984155   -1.81898043935406    1.05093476354744
C         1.19627021454699   -1.96969813097863    2.27717551074584
O         2.01631150496587   -2.80332726282552    3.17319087753820
C         2.17231089917913   -2.30747637014572    4.68434099560159
C         1.24676116200953   -1.55349561089398    5.50949104234044
C         0.99642333809618   -1.84588500080164    6.85506697086881
O         0.40826398377227   -0.78014834665021    7.59449066738617
C         2.48297926644817   -0.87552019857302    4.97882651090212
C         2.38994750325058   -0.01426630997794    3.75146589485913
C         2.58422316078966    0.73409187799779    2.89047863798222
C         2.18051579027312    0.90033916549162    1.33745045665970
N         2.81762608224360    2.00016120060053    0.67018708062627
H         2.93722393627305    0.20821449078296   -1.18727993507149
H         3.95886520005871   -1.30364875840513   -0.88780255558425
H         4.52864946502474    0.34108759033783   -0.37860134391573
H         2.87920380096120   -2.66009476874249    0.69068940174379
H         0.48766645615276   -2.65439029826986    1.77452601116497
H         0.61469156767975   -1.16381822072431    2.75823755617435
H         2.78668922505076   -3.17644756969775    4.91640711638484
H         0.42818201046177   -1.07619175676607    5.04451921211994
H         1.93526264639604   -2.02604525465340    7.39683766226024
H         0.45000081916187   -2.78162444966539    7.11441030483184
H        -0.08416692254024   -0.15209130368022    7.04006176524442
H         3.26270112364863   -0.55650025435718    5.62334134904535
H         1.08443090412898    0.85239716548849    1.09050682619147
H         3.84642891412979    2.15379621343323    0.68780641853337
H         2.39732520202833    2.89679129438296    0.89316174226121
