29
 energy: -41.992409347174 gnorm: 0.255948349504 xtb: 6.4.1 (79825abcba525fcdf90b791dcacef51065a7a4e7)
C         2.92626727078076   -0.29940992449623   -0.83459822140488
C         2.28402969165956   -0.51819770614247    0.52394348389220
C         2.27277012813972   -1.83069668005350    1.01892769262844
C         1.60321903216092   -2.20765345765962    2.42055180617470
O         2.69949543968197   -2.41054832386388    3.31845915814613
C         2.53000364252182   -2.10596174545965    4.79286546681957
C         1.23049438408513   -1.50213410558469    5.34110252511286
C         0.85554293317078   -1.89913971221991    6.74783157718459
O        -0.21097314108028   -1.06045664078431    7.15027943812845
C         2.41847239500843   -0.64582678999547    5.11900860581538
C         2.52597825092600    0.29555656907240    4.08756865689315
C         2.54973786209085    0.54937972809903    2.80887868857144
C         2.25198035058683    0.93977861458925    1.37036113923201
N         3.24644477724626    1.87679194509249    0.91751336432919
H         2.62273821077575    0.55189688708987   -1.45158159147379
H         2.79634889638945   -1.22380600873877   -1.38281786364081
H         3.91957623969361    0.05715764874107   -0.51305731240149
H         2.72527392862904   -2.59886321700151    0.37781155142430
H         0.97013140316649   -3.10139200807318    2.43557801467537
H         0.79438992573435   -1.47139685178641    2.52466047907836
H         3.27227628363974   -2.59908273457136    5.41106933577893
H         0.28292811810395   -1.41788797956068    4.82734000111150
H         1.65215549114470   -1.85677449302363    7.50043724139436
H         0.50598222239083   -2.93857288641486    6.77416380517019
H         0.01500853339371   -0.34507100877188    7.76635466973552
H         2.98516590641736   -0.70960729955702    6.04291683218927
H         1.21795802692270    1.08264734261531    1.05163161744636
H         4.17077587003035    1.60128207467948    1.24943398233430
H         3.30842831136107    2.43085142371848    0.06514295038114
