29
 energy: -42.000311038982 gnorm: 0.262661528837 xtb: 6.4.1 (79825abcba525fcdf90b791dcacef51065a7a4e7)
C         3.20169326389024   -0.41359300415296   -0.82847021123018
C         2.49848211107122   -0.41079399753136    0.51743432159261
C         2.27284161249084   -1.71258144644992    0.98884232753719
C         1.52919249113794   -2.16093938773804    2.33082086232566
O         2.51400737347980   -2.62836329473401    3.25865726011116
C         2.43555935133014   -2.11416914094273    4.68162069822032
C         1.20361866005349   -1.51708762982777    5.37423268755037
C         0.97908881176542   -1.82743480517020    6.83380791828243
O         0.02213360627856   -1.07040642380342    7.55071435358483
C         2.38870966709771   -0.67313991441801    5.09640029487777
C         2.37946341444910    0.23869554752277    4.03333895095271
C         2.10717991771239    0.69569420452948    2.84293882197504
C         2.20162571381189    1.01886698948980    1.36069624764876
N         3.20303787681726    2.00239753531552    1.04153185094917
H         2.71469429225404    0.19600891712805   -1.59576360689268
H         3.15231342564466   -1.38083317536165   -1.31214340972559
H         4.17799493678973    0.09840012580968   -0.78499865678322
H         2.52969239892256   -2.60504612533913    0.40283559314157
H         0.90756416836788   -3.06268189665594    2.34608550469452
H         1.00321587479888   -1.31311127816337    2.79087850609055
H         3.11734483888057   -2.84060953972020    5.11030012098385
H         0.31647467223614   -1.45649189493748    4.75922454146141
H         1.91827793990965   -1.84365849572239    7.39990173733441
H         0.71360775717513   -2.88040317398863    6.67861508692594
H        -0.21360519695559   -0.23846926847936    7.10946521531057
H         2.82372864890303   -0.49273950137099    6.07467943428559
H         1.33930375561736    0.94800427884981    0.69542830291046
H         4.03247055077802    1.96471125840865    1.63405707449679
H         3.42138512350082    1.79509431122369    0.06854210653674
