29
 energy: -42.043275269781 gnorm: 0.235353666404 xtb: 6.4.1 (79825abcba525fcdf90b791dcacef51065a7a4e7)
C         1.66730432740341   -0.24059741868099   -0.77781832701495
C         2.09663222464760   -0.55964630500396    0.64339880431547
C         1.91025515733685   -1.82415251506190    1.22139303790153
C         1.99687509213784   -2.47782690735180    2.67746722095732
O         2.99880092968967   -1.89873329620116    3.52009468730987
C         2.61356688573878   -1.43140945644026    4.90882713602942
C         1.23240570235093   -0.83691333723932    5.21356262556035
C         0.51287301045099   -1.32094735100451    6.44850095723878
O        -0.06388117948010   -2.58089584993015    6.16093450920647
C         2.43651393898002    0.02562214080773    5.21949323277876
C         2.49182562030079    0.88396736542852    4.11413678364597
C         2.36526305997641    0.81787205866549    2.81812293113587
C         2.84375725065746    0.76230443416818    1.37647136755722
N         4.27691107068727    0.64996567931782    1.30248014584407
H         1.16764395816334    0.72813327054980   -0.87488543415101
H         1.07707513406429   -0.97384346097343   -1.31252518229953
H         2.61562263023014   -0.08095428551182   -1.31855686320005
H         1.34178067417669   -2.44197551034839    0.51357884561074
H         2.26104402504566   -3.53194121739831    2.54016415230754
H         0.98146214682618   -2.44641961410278    3.09587739527869
H         2.99977247856437   -2.09618283977223    5.67383348105343
H         0.65944530943462   -0.66263587536073    4.31340983364349
H        -0.18936056075058   -0.52687692063933    6.72978693703747
H         1.22470777196850   -1.37008410072881    7.28167814664130
H         0.64044994985756   -3.12909562731162    5.77911298143813
H         2.96432280332157    0.38120011827089    6.09915115030444
H         2.64206239452719    1.69351692177434    0.84415133476806
H         4.56875049183228   -0.17355286585596    1.82889434988188
H         4.73758566536628    1.34654114041913    1.88550736200212
