29
 energy: -42.044355545259 gnorm: 0.256308658323 xtb: 6.4.1 (79825abcba525fcdf90b791dcacef51065a7a4e7)
C         0.95504584516972   -0.25835129665985   -0.09495056453484
C         1.93998668329736   -0.65579182686422    0.99036291135409
C         1.95381300693790   -1.80476798328142    1.79500713319815
C         2.98369441316773   -2.38096398855714    2.87310161315023
O         3.59669410799214   -1.66639185805235    3.95145400927379
C         2.63311960112054   -1.31011196108631    5.06499046795786
C         1.17810907201166   -0.87803433034231    4.84105106292976
C         0.19711728676899   -1.24777980795367    5.92642301835681
O        -0.68659998378079   -2.29269642833794    5.56586356705696
C         2.21976705207446    0.12980224849204    5.14616311929198
C         2.65832252185546    0.81043843013139    4.00334542502709
C         2.84395024138209    0.98313221887246    2.72437796684078
C         2.98700980711343    0.64004811699370    1.25052893765360
N         4.30222829039142    0.17388122590029    0.89709813169410
H         0.26826842535405    0.55016763917318    0.17366730909632
H         0.36437967457444   -1.11650704107173   -0.38925291502722
H         1.49947127176242    0.06821781530790   -0.99725055217860
H         1.26209280532386   -2.57613151481027    1.43115154784188
H         3.83795117155874   -2.66696584004127    2.25001039467483
H         2.62731744535097   -3.38333239476018    3.14763754041581
H         3.00750971777792   -1.74456316046580    5.98553233411371
H         0.86435658591382   -0.92881004974436    3.80765253845964
H        -0.29863602240679   -0.33466195112753    6.27748722314583
H         0.78180024812663   -1.59696173423543    6.78637952710828
H        -0.17057757105469   -3.11107540829833    5.48605297906969
H         2.29423024854778    0.57367519885128    6.13421573169464
H         2.66407248373173    1.40806478926699    0.54550127690240
H         4.64155571174680   -0.51622253018118    1.56723144966667
H         4.91020194999908    0.98728583123961    0.97520170063584
