29
 energy: -42.032306988814 gnorm: 0.276084110918 xtb: 6.4.1 (79825abcba525fcdf90b791dcacef51065a7a4e7)
C         3.87996364536436   -0.28054322271913   -0.45881595267368
C         2.81948752113464   -0.49362358516557    0.60699825043401
C         2.42041485311839   -1.74376419638708    1.10265858188867
C         1.37443473716879   -2.08049095179538    2.26347119400971
O         1.93976565437597   -2.87274399637536    3.31321496009247
C         2.12081334177998   -2.28727849209029    4.69879291403768
C         1.12520567253183   -1.34621611094666    5.38949035812467
C         0.94024194010004   -1.85426380843609    6.79830711392470
O         0.89040576908740   -0.81536579990905    7.75800362515938
C         2.45137534613626   -0.84705961766627    4.95821730333899
C         2.41972485169544   -0.07866428410050    3.78766383735169
C         2.13750156777772    0.56935609125198    2.69200954131355
C         2.00999548418858    0.85909892260604    1.20533712480353
N         2.48092409805850    2.08252041458457    0.61078629771164
H         3.63516003217741    0.54309163794137   -1.13647254996699
H         4.14514192854448   -1.15814460263113   -1.03451377001196
H         4.82219298503747    0.03604163747448    0.01990066081626
H         2.86873883925264   -2.62245241180173    0.62018366235023
H         0.84936797673208   -2.93531040214306    1.82371792470204
H         0.83755712199120   -1.14089711945248    2.45332056932826
H         2.60532684880844   -3.08086814018287    5.25716118464859
H         0.23043860078116   -1.01287278670316    4.88233623156494
H         1.67316425555489   -2.61511400384539    7.09281266533570
H        -0.04436960062534   -2.33484508471668    6.85205790786078
H         0.35127667023259   -0.11435650904817    7.35760532251966
H         3.33118771372888   -0.77684939696454    5.59052779248167
H         0.92412219586797    0.79509558395977    1.11597880423974
H         3.49820553519961    2.11520601190168    0.67812932500260
H         2.07302399795404    2.99004517034426    0.82844546194569
