29
 energy: -42.049669307801 gnorm: 0.249555856824 xtb: 6.4.1 (79825abcba525fcdf90b791dcacef51065a7a4e7)
C         1.36023581014089   -0.09871154777662   -0.57608320694516
C         2.09842975234355   -0.40703762323615    0.71464430270742
C         1.82237910340975   -1.63398703833697    1.33607882875410
C         2.26729922328105   -2.39133882891787    2.67152242826457
O         3.11940541080217   -1.82747333024347    3.67411735465353
C         2.49103158131093   -1.34297231509473    4.96476825620736
C         1.03481278639580   -0.88012638225598    5.10295663552124
C         0.20738364894312   -1.28179447691836    6.29924784760954
O         0.10170125058743   -2.69294346220577    6.31656406278817
C         2.14169925805739    0.10202954907665    5.16660676809586
C         2.40113342417304    0.81589495594697    3.98986597975323
C         2.73253321532056    0.81829912847468    2.72883189371476
C         3.19547833749238    0.74032201362328    1.28314690937531
N         4.54345955363998    0.26705269768652    1.10711463700220
H         0.71844419824270    0.78210401888356   -0.47714322200216
H         0.73559867340881   -0.96442528329234   -0.75580481400418
H         2.04584100420196    0.07712062077782   -1.42238118300927
H         1.18733426426968   -2.36212596014583    0.81415815851823
H         2.90393083338634   -3.19976165292445    2.29609325362211
H         1.35203246135919   -2.80421069874775    3.11754990910419
H         3.01310091455327   -2.00056851033084    5.65129867078597
H         0.51863597041086   -0.84253809506059    4.15370434243473
H        -0.84836250530750   -0.98508290043700    6.28644440410078
H         0.69790225731677   -0.95445645723557    7.22420659977676
H         1.01605501256532   -3.01147988464610    6.24667300493773
H         2.46319358154780    0.63446442498220    6.05653398572740
H         3.12096110337526    1.68118671795842    0.73503841833906
H         4.63437245392802   -0.58890133739301    1.65441938827508
H         5.30093505854506    0.82984766143652    1.49032721365513
