29
 energy: -42.047692479709 gnorm: 0.243618578146 xtb: 6.4.1 (79825abcba525fcdf90b791dcacef51065a7a4e7)
C         0.86224494580046   -0.32302053151263   -0.04391628266166
C         1.86756541643091   -0.53538224564365    1.07420983829505
C         1.85061737826823   -1.76092743502245    1.75651581978311
C         2.85655374986378   -2.48155231075013    2.76831474048182
O         3.60439359021390   -1.67402592048370    3.68366306169081
C         2.87528816729331   -1.23853068711369    4.93830397907386
C         1.37467894129548   -0.91907037127880    4.94185635124735
C         0.31020725345796   -1.36406495422758    5.91446561660632
O        -0.73078045211138   -2.15728335075720    5.37598698579453
C         2.37079865555218    0.16299558747712    5.11723604535028
C         2.62944520720157    0.99231451369998    4.01861833518974
C         2.60067935926991    1.04529706414729    2.71615760621949
C         3.05036464628296    0.64056680109130    1.32174725115558
N         4.35589699579348    0.03662371827129    1.26824393828478
H         0.38590832977774    0.64479262515113    0.14037364747120
H         0.18530362712536   -1.16652282727667   -0.09067105367832
H         1.38127012583297   -0.13061214024620   -0.99826609874427
H         1.09756215256055   -2.52890652389368    1.53518943312284
H         3.66031691316314   -2.97584067410508    2.21204311168210
H         2.25490313455242   -3.24826404169129    3.27554900478034
H         3.13745206847794   -1.79324472938885    5.83266158495520
H         1.00953856676775   -0.83174442818815    3.92796386482835
H        -0.16627062810976   -0.51089260605169    6.41232845322024
H         0.72040241797732   -1.93166839723075    6.75878405779495
H        -0.31568072305219   -2.74700873184909    4.72613376728344
H         2.46170306294919    0.65628418074224    6.08015800212638
H         2.87252632269010    1.43407957359714    0.59379592015211
H         4.42479991383779   -0.58592354718837    2.07332296933539
H         5.10645800888777    0.72365667133375    1.22348818843267
