29
 energy: -42.028483627978 gnorm: 0.263482205933 xtb: 6.4.1 (79825abcba525fcdf90b791dcacef51065a7a4e7)
C         1.05771941642365   -0.45866512713317   -0.00815102773993
C         2.10978133089233   -0.67197089714391    1.06592492129513
C         1.93186945208219   -1.85774137307295    1.79399459492264
C         2.78247099220115   -2.63035986807113    2.90506746172266
O         3.47697039041550   -1.71670016067318    3.76070898626380
C         2.74702568926846   -1.43486659476572    5.05806206356279
C         1.28453621726657   -0.97123903536381    5.04969267758518
C         0.28695017114380   -1.25135087974008    6.14671048533228
O        -0.63978618253300   -2.15293564008057    5.57128476308345
C         2.38293550457005    0.01810450329133    5.14241837333499
C         2.53463762589898    0.71046021011602    3.93442061880728
C         2.81024342798167    0.93107746711066    2.67926795346711
C         3.04970484093520    0.72215122129600    1.19285898538583
N         4.37035415297653    0.66572881804191    0.62301119283931
H         0.56563955001108   -1.37696917543367   -0.34295953474648
H         1.70097059935800   -0.04930451746478   -0.77664532668422
H         0.34563654448772    0.31981582882188    0.31448976760634
H         1.12525968276992   -2.51371332083507    1.44051063885710
H         3.49169063616365   -3.34226035792274    2.46917811796448
H         1.96551909052760   -3.19264919356328    3.37786470964943
H         3.05765635384922   -2.07848338053561    5.87389231979358
H         0.81365196911992   -1.14681973263193    4.09242017627809
H        -0.23113159940923   -0.32351930885379    6.41785900670029
H         0.74927533844528   -1.69190012992490    7.03860689466410
H        -1.07393406631910   -1.57954351024761    4.91926475384959
H         2.56181649515252    0.41158601527334    6.13840519167889
H         2.42773309542817    1.42112826252238    0.63091202672424
H         4.87477790939104   -0.04076453355608    1.15863118055952
H         4.94754069005780    1.48402451564662    0.80904086286109
