29
 energy: -41.968161924113 gnorm: 0.298477077205 xtb: 6.4.1 (79825abcba525fcdf90b791dcacef51065a7a4e7)
C         3.71965028738029   -0.13304703402223   -0.42993303208840
C         2.95754786698645   -0.45968068941123    0.84226314891385
C         2.35274118744112   -1.69965619699071    1.09615156535530
C         1.40497136494246   -2.37508369842382    2.19181359667067
O         2.24468771735099   -2.91884595849824    3.21573984341057
C         2.05870622565549   -2.38123245602452    4.61993248913683
C         1.11700993320104   -1.39152509422049    5.31820424578948
C         0.80681855911196   -1.77894410800891    6.74325739736090
O         0.56996348235042   -0.75435577147945    7.69032050921948
C         2.46748976084362   -0.96261162535110    4.88679129350195
C         2.44373580225018    0.00563338953156    3.87507696702900
C         2.09804166695198    0.65833996001337    2.80059642784253
C         2.11773520985430    0.92739765255185    1.30472754761162
N         2.51367111161762    2.20223351792495    0.76616198065262
H         3.08110073192447    0.49583043008703   -1.05785759512246
H         3.98312651193371   -1.17782613472629   -0.53456854422454
H         4.63916717556079    0.38199341715903   -0.10372186706747
H         2.72269100122205   -2.58294805984763    0.55874851024814
H         1.06002204706354   -3.28022344739533    1.68041714137127
H         0.79489170152867   -1.50080236892391    2.45742965589778
H         2.85244280358509   -2.93372085140066    5.11090277574972
H         0.31342436755125   -1.06426583570520    4.67315941759097
H         1.73899504844503   -2.19330014455170    7.14594551899444
H        -0.13207176633065   -2.24578313188463    7.06552079409135
H         1.29478139312492   -0.11110578551972    7.63321130081024
H         3.27778905555971   -0.86476449617625    5.60279187168693
H         1.06600021726113    0.90476344455421    1.01396417862182
H         3.53350027356378    2.18229325755425    0.76218449807452
H         1.98663223021007    2.21970338326496   -0.10520706255672
