29
 energy: -42.046617040667 gnorm: 0.236355207925 xtb: 6.4.1 (79825abcba525fcdf90b791dcacef51065a7a4e7)
C         1.46785886306201   -0.87576210346479   -0.49468599934427
C         2.14832623137464   -0.85355998550265    0.86268056701171
C         2.18970725836940   -1.99687155312204    1.67441695905436
C         3.06071534645152   -2.41243697139819    2.94862084535222
O         3.49800437780308   -1.38137591663650    3.84020216720148
C         2.58998022019869   -1.03817322704653    5.00342126698779
C         1.08204909641915   -1.04936974862943    4.72073074447308
C        -0.05476589710480   -1.61497299641509    5.53610401035866
O         0.33590910024337   -2.03218784683303    6.83075256715886
C         1.78375267789852    0.22698090873534    4.98984104572962
C         2.08722593726542    1.01936845056154    3.87554542002726
C         2.12693514329839    0.90183356310939    2.57760577756949
C         2.80855484338453    0.65078569532225    1.24240046470771
N         4.24515720841599    0.59155739450381    1.31088566149140
H         0.67927430853674   -0.12313566229786   -0.59065212186299
H         1.02378273239961   -1.85773948268568   -0.59690389105138
H         2.24961059988345   -0.64971890917365   -1.23964263855084
H         1.69387139643096   -2.85870376417674    1.20830381761364
H         4.02282111510166   -2.68871259194493    2.50385280994178
H         2.57651140332235   -3.26644416933091    3.44191101073959
H         3.06824742008089   -1.44796835806498    5.88639441374486
H         0.85529269804942   -1.15440624108027    3.66883713273442
H        -0.52226505293811   -2.44619100090737    4.99451117288858
H        -0.89660975692331   -0.91254184582605    5.57069835491501
H         0.77454111416930   -1.26080094298569    7.22439862164073
H         1.73826491274267    0.77460806545151    5.92624443231243
H         2.55314940923178    1.35934568663718    0.45251887071041
H         4.52401260364801    0.13707868189613    2.18045666173227
H         4.50036184512342    1.57519139001461    1.24237328487700
