29
 energy: -41.985776281604 gnorm: 0.485987779610 xtb: 6.4.1 (79825abcba525fcdf90b791dcacef51065a7a4e7)
C         3.85111450020728   -0.22365269753466   -0.32887389871594
C         2.67631398320213   -0.45110598995663    0.74040678696736
C         2.44555764479082   -1.71198598462808    1.16204261137803
C         1.43569347116560   -2.19456463715997    2.07062939293072
O         1.91488662884716   -2.96775937346529    3.17109931905796
C         2.21851106269858   -2.44196945178785    4.39172880192712
C         1.22096097061152   -1.70447113650220    5.23587083946761
C         0.94615323004228   -1.71522626793329    6.80285163711999
O         0.62743004252220   -0.39466206874299    7.34628468144820
C         2.53718473441530   -0.90119591353246    4.89859994577280
C         2.51999300064101    0.17508469693785    3.92049390597639
C         2.30690232052936    0.39859459281244    2.86981150933532
C         1.92742599691038    0.73326811769959    1.52478797663869
N         2.39162248376042    2.04035914578814    1.07996604720038
H         3.32534884331583    0.10977187124477   -1.22442090274702
H         4.47649161781368   -0.98255361256426   -0.76087751975531
H         4.52055151397718    0.60810307255818    0.05724506289448
H         3.04821792687960   -2.48268553371113    0.72015600891824
H         0.75559136966524   -2.85870803175008    1.55427366331224
H         0.87822921717852   -1.34016474506331    2.44073599261494
H         2.67640363435081   -3.26837703853787    4.93139736135312
H         0.26271877405901   -1.70273530110423    4.67645002021325
H         1.76160662033251   -2.14330678925368    7.39325661758322
H        -0.01655592758028   -2.20459927553719    7.01626129461023
H         1.22250655090084    0.20510625553838    6.88127198723704
H         3.03762143060975   -0.47515102020556    5.77462848295534
H         0.83242619519889    0.84156729082048    1.56407840842360
H         3.26275481800322    2.53474332470388    1.08862149667236
H         2.05971037583520    2.05423341837455    0.12714058266169
