29
 energy: -42.028848806964 gnorm: 0.261032254876 xtb: 6.4.1 (79825abcba525fcdf90b791dcacef51065a7a4e7)
C         1.12811187952784   -0.13981548870176   -0.22245203999969
C         2.02183653702197   -0.60763124148894    0.91261510570904
C         1.85389489621353   -1.85743493928512    1.52708725917779
C         2.38393110250519   -2.36057433884276    2.94865597037258
O         3.33957959911309   -1.49630905532885    3.57236051602068
C         2.77576281004749   -1.02359350819914    4.89675662708150
C         1.26754896153632   -0.82634927123134    5.09745963368926
C         0.42718101160396   -1.45643500909767    6.18090889568816
O        -0.23337765827331   -2.61523964381597    5.70799856439313
C         2.17877860949169    0.34114843563501    5.07533972373042
C         2.15794775497720    0.91851607049010    3.79947088323628
C         2.63348331188717    1.01030978484501    2.58890137596634
C         3.19293163399976    0.55762044328910    1.25006100218292
N         4.48827432417856   -0.05697483927974    1.12205890076300
H         0.45574041072097    0.65288825505735    0.11968687774328
H         0.62791449266025   -1.05224469991863   -0.52112776603150
H         1.69713985375360    0.28635853567923   -1.06611936997948
H         0.95781985243247   -2.35249766794197    1.12980671011912
H         3.01395023040470   -3.25175426038327    2.85555076938579
H         1.60217392021094   -2.64579434911674    3.66602769281855
H         3.40916903817182   -1.36785971690067    5.70705924367106
H         0.73268542600797   -0.94114510735509    4.16489642991049
H        -0.41835946673821   -0.84304840274718    6.51500445263645
H         0.94272584536964   -1.74318097915139    7.10573195223673
H         0.37514863544980   -3.30707194124873    5.40229146279851
H         2.42834034511192    0.81475069849667    6.01992199638004
H         3.09898656098302    1.38129522365941    0.54017628192697
H         4.60467302915547   -0.84629933138366    1.75757691136618
H         5.17701060597074    0.66014458858178    1.34283310338429
