29
 energy: -42.041967391982 gnorm: 0.236424566737 xtb: 6.4.1 (79825abcba525fcdf90b791dcacef51065a7a4e7)
C         1.46265057872306   -0.16882857695717   -0.64531589673542
C         2.16954458493348   -0.59194596192691    0.63031936136030
C         1.84786098484837   -1.79227357512466    1.28110579544472
C         2.28803752163034   -2.51247456212431    2.63849314087520
O         3.09640424122895   -1.77246018435336    3.55944255021477
C         2.60288266554793   -1.39778151705572    4.94198621077683
C         1.16686926057798   -0.87459267611772    5.07627884982777
C         0.40257820594166   -1.19207615526382    6.33808403541081
O         0.05054039633875   -2.55910947711826    6.43857955889591
C         2.30806391768477    0.06926273518785    5.04999232704724
C         2.52397986390062    0.74521966201926    3.84247780024052
C         2.29696322834570    1.00479545246652    2.58505089282285
C         3.00060824615653    0.73033161940549    1.26597660791544
N         4.38134695409389    0.38655495581587    1.48369843929349
H         0.94091621949669    0.79310211004638   -0.64324998866499
H         0.70348735848724   -0.87386229344215   -0.95921133166910
H         2.25994198528610   -0.07921848323343   -1.40260589541734
H         1.24279251594898   -2.40777266857293    0.60219310873156
H         2.82845883817183   -3.43394164372223    2.39634121798427
H         1.43622832059249   -2.82058128665032    3.26027145263633
H         2.96956794365087   -2.09816815725811    5.68449115954216
H         0.50988562482648   -0.98708686061923    4.22501573894734
H        -0.58709799756279   -0.72140111474655    6.29556752306996
H         0.97105681112651   -0.87506209871380    7.22105716149907
H         0.85576608880723   -3.09984649979498    6.47868033013773
H         2.49305692526806    0.70932570711080    5.90726295635333
H         3.00124875605242    1.60035426663735    0.60699078622192
H         4.43301125697595   -0.47990231780864    2.01946662499189
H         4.71223621975278    1.15536817515615    2.06404119758615
