29
 energy: -41.992100553062 gnorm: 0.281541506995 xtb: 6.4.1 (79825abcba525fcdf90b791dcacef51065a7a4e7)
C         3.66472819298183   -0.22815757234090   -0.43410494654252
C         2.82113590019661   -0.44512465300460    0.80978013488967
C         2.44733469345626   -1.74663502575673    1.17602200936883
C         1.24670258277756   -2.13850110948786    2.15575092396064
O         1.98816699490678   -2.81124620191366    3.17891781170346
C         2.32377962992666   -2.32687959377680    4.57467120746438
C         1.32950109178224   -1.45568595790323    5.35334176899784
C         0.98363296359582   -1.82274827270563    6.77556860242332
O         0.38783628779748   -0.60689206651682    7.18730894321320
C         2.64454034816807   -0.90914939297156    4.94609589795384
C         2.55006965992111    0.08427173127761    3.96333533955933
C         2.01834255706762    0.54223658549084    2.86443898552921
C         1.86943433208853    0.82530818864170    1.37847115308006
N         2.60213385355275    2.01208660613962    1.02247539243865
H         3.29547743602732    0.25920725961653   -1.34165717962387
H         3.99977633013455   -1.20092826820579   -0.77084163859448
H         4.50533494200175    0.42636221636079   -0.14744166332973
H         2.98459136244417   -2.65612578436806    0.87593659591903
H         0.57676248766881   -2.83929117444007    1.64597854285620
H         0.66288168465794   -1.23900837557780    2.39488040292794
H         2.85412163878053   -3.05865664394297    5.17429835687494
H         0.42731348634302   -0.99625152252705    4.97398876826025
H         1.82981765097454   -2.13798600113160    7.39798190316643
H         0.33144991738920   -2.68087880032472    6.57166503588860
H         0.91857242754442    0.15760229394141    7.46346204359071
H         3.35692992501376   -0.85792941393895    5.76383268341293
H         1.00018477920800    0.38907584735794    0.88318466953855
H         3.61109919303298    1.91435615222057    1.13606525436015
H         2.23772368533179    2.48796062522765    0.19900205637140
