29
 energy: -42.010976069987 gnorm: 0.245759435415 xtb: 6.4.1 (79825abcba525fcdf90b791dcacef51065a7a4e7)
C         3.09154122013163   -0.23975529455085   -1.00752460729836
C         2.55580268893509   -0.48254439648538    0.39247912078179
C         2.40792259211269   -1.78166071645360    0.90063064324651
C         1.67553136679543   -2.16277666106325    2.26931576128735
O         2.23677951361444   -2.80224467463212    3.42053558877510
C         2.33018583559125   -2.33462025946123    4.85858186095023
C         1.14557955787549   -1.48788708227148    5.34195219976929
C         0.70731255140331   -1.71360531780481    6.76815764961246
O         0.38476293639651   -0.54095245664811    7.49179922661075
C         2.48060811794679   -0.87267184910118    5.16004935601019
C         2.89769353582994   -0.07022631298354    4.09058714675924
C         2.56140076647667    0.45165230058750    2.94403202611294
C         2.29511184285998    0.77659115695006    1.48324165749843
N         2.90099358382980    1.98311782231569    0.98401694378870
H         2.83271904922724    0.74897406843246   -1.39860898182940
H         2.87971841148316   -0.97998900363411   -1.76852187111429
H         4.19429378873656   -0.26192451195480   -1.03276341258495
H         2.82739159748476   -2.59753954621422    0.29709363936972
H         1.19938567834619   -3.07169329658805    1.88597496570722
H         0.83577324837900   -1.49752189758380    2.51295347082564
H         2.81251222665646   -3.01458991262824    5.55235093610068
H         0.38833298278526   -1.43562471062803    4.57203176718101
H         1.54584307713946   -2.18302839845062    7.29665569672200
H        -0.20168202509184   -2.32066644671195    6.67589150757581
H        -0.12753671030546    0.06874937461036    6.93663640427887
H         2.97874765519892   -0.79506116753079    6.12163629922703
H         1.25296915624756    0.98971727871699    1.23886894257692
H         3.90143559386885    2.13134535351644    1.11671711655382
H         2.49436919830321    2.87816083278546    1.25031340391731
