29
 energy: -42.047820880469 gnorm: 0.249223637654 xtb: 6.4.1 (79825abcba525fcdf90b791dcacef51065a7a4e7)
C         1.29704064920698    0.06021152184614   -0.46946646461033
C         2.05791325676016   -0.40984189045800    0.75776433436550
C         1.73581715299982   -1.61986648705146    1.39012837184237
C         2.42083581199162   -2.45436724711415    2.56881542490240
O         3.19476729093236   -1.71209537814066    3.51712359482977
C         2.48507177393817   -1.38376131608488    4.81477673030011
C         1.02509975611173   -0.91709423405642    4.88259347046140
C         0.13312904513683   -1.31232941880176    6.03379557935210
O         0.53036601850212   -2.58227182426717    6.51572830491003
C         2.12949810842983    0.04489838903662    5.10339600045184
C         2.43155982360001    0.74046371926327    3.92586622979913
C         2.62134848988092    1.04580537276604    2.67255648683652
C         3.21122855534921    0.68468599607204    1.31902850914848
N         4.45683885137518   -0.02887318537739    1.42539040611792
H         0.87665697446190    1.02460693844163   -0.16823448965885
H         0.57514223012274   -0.70165009065217   -0.73472338981365
H         1.93329630195065    0.17556439191631   -1.36337035072181
H         0.90846102663858   -2.18527247988077    0.94105451812828
H         3.09429892135456   -3.20789899457576    2.14640368156164
H         1.58106639692590   -2.94808849522896    3.07689376396585
H         2.89544807788597   -2.00634259151368    5.60236607352383
H         0.45634100360262   -0.93017661727228    3.96320581736453
H        -0.88229167693880   -1.32182252057623    5.61951031651579
H         0.11595751882669   -0.55604203451809    6.82817704046559
H         1.10231365556511   -2.47797392199995    7.29315409756799
H         2.27465206363505    0.34658998245543    6.13622146137274
H         3.26303949491730    1.49347503686062    0.58801685217461
H         4.34354405585355   -0.85254081462356    2.01632262059597
H         5.22150359033310    0.45603313555105    1.89177317507065
