29
 energy: -42.051887480466 gnorm: 0.232116323883 xtb: 6.4.1 (79825abcba525fcdf90b791dcacef51065a7a4e7)
C         2.41063853419001   -0.41310128846353   -1.02393585369983
C         2.26051923193391   -0.54962969322264    0.48098838331493
C         1.85496457667121   -1.75757177175400    1.06766637078549
C         1.42327483519461   -1.90785702396899    2.59933329116576
O         2.59955543978604   -2.15720305411456    3.37613207372402
C         2.51384951914851   -1.68049332858322    4.81167272774754
C         1.25080696744832   -1.00789281926899    5.36505112077901
C         0.72937851754300   -1.36371887668451    6.73566743775564
O         0.06978547036827   -2.61581126294130    6.73909437258496
C         2.47253229470788   -0.21057113475929    5.10903427746615
C         2.57864265285506    0.63499478211563    3.99755432799376
C         2.20133524152868    0.83663628518776    2.76588132393003
C         2.64908317798046    0.86421122687789    1.31358483520695
N         4.08630276557978    0.93875233632461    1.28412215042221
H         1.77169447708088    0.37907339256066   -1.42609430857799
H         2.24067223602424   -1.33866144720786   -1.55908212380864
H         3.45823381925456   -0.08450215758151   -1.13237213865104
H         1.96490383606414   -2.67179838758240    0.46935835925773
H         0.74716840870336   -2.76138731200148    2.71833111794489
H         0.93412651945465   -0.94918829699970    2.82025213893018
H         3.10401462035435   -2.28407146689008    5.49263652992165
H         0.41396159014814   -0.92876640839652    4.68508042588785
H         0.05971398709343   -0.53874432989282    7.00727019106403
H         1.50077887950218   -1.40202179323263    7.51462940130706
H         0.73208560734790   -3.30428641152728    6.56660230507680
H         3.04982969686638    0.05433409708857    5.98958458839892
H         2.16563236528122    1.66088190101739    0.74543584164310
H         4.40369772918413    0.21086002114358    1.92435505368416
H         4.34183851705652    1.89711473086060    1.51564361830255
