29
 energy: -42.007915558508 gnorm: 0.254916356603 xtb: 6.4.1 (79825abcba525fcdf90b791dcacef51065a7a4e7)
C         1.75163937166343   -0.24772524597800   -0.58269651758969
C         2.00344969402229   -0.50002544462917    0.89341626301747
C         1.70264891786667   -1.75055474089608    1.45331363629799
C         2.06558849170852   -2.69557420315238    2.69030932646175
O         2.87959248652186   -2.03467811034586    3.66490651673425
C         2.29939927806008   -1.53367617729839    4.97171467769614
C         1.00297215499417   -0.71778191152461    5.05825263529624
C         0.13504814502312   -0.82695707924700    6.28783695549080
O         0.40856318693337   -1.98669973457220    7.05137907561733
C         2.31693825341174   -0.05560773218080    5.22824595548550
C         2.56803203797831    0.41541882574071    3.93336579994587
C         3.28365608539091    0.59589611081283    2.85849428166637
C         3.14551172153422    0.65499129376912    1.34593765340711
N         4.32016457089225    0.42247227185825    0.54709464089528
H         1.64158535324296   -1.21072341201232   -1.09067712882924
H         2.60362429637076    0.28430750166032   -0.98642232044814
H         0.84605427344392    0.36548285583793   -0.72789690175795
H         1.12544143949516   -2.32319008584568    0.71521492262784
H         2.66087660003607   -3.45906398161299    2.17795225853564
H         1.23030616943173   -3.29484426607121    3.07798931838545
H         2.25168443779952   -2.31052435889834    5.72705785538074
H         0.60163249661839   -0.53608234374542    4.07091123800646
H        -0.89605669417143   -0.63375197730292    5.96799912491595
H         0.31003280633221    0.06603100093698    6.90042167050574
H         0.24840610913485   -2.83616474967165    6.60961905596032
H         2.57056603530083    0.51244638690491    6.11807933211286
H         2.86414895088973    1.68548075992014    1.12204351826007
H         4.80531909727078   -0.46609981493447    0.67171281059546
H         4.94126815169896    1.21703806271379    0.40477550765210
