29
 energy: -42.018409077968 gnorm: 0.244637620915 xtb: 6.4.1 (79825abcba525fcdf90b791dcacef51065a7a4e7)
C         1.13080431838912   -0.57231113832219   -0.29939663649731
C         1.86858439641873   -0.65760542723442    1.02513279206916
C         1.97323349323362   -1.89000290739814    1.68697471125144
C         2.68975819214304   -2.59626942886586    2.92903959948068
O         3.50259740271358   -1.78622763861013    3.78481446247711
C         2.81822323954020   -1.41121471260964    5.08341821852335
C         1.42035260364218   -0.77958906466933    5.05337255862811
C         0.37135451306601   -1.08518828841010    6.09418991542131
O        -0.51990585542053   -1.97314082849714    5.44611171609451
C         2.61217691334964    0.05321594129657    5.33598587631839
C         2.86731595923364    0.68841335477359    4.11407878744257
C         2.53279599695431    0.76009612310481    2.85590683924132
C         2.78061682832567    0.72129792505664    1.35674602342557
N         4.09825868619356    0.51243928775695    0.81616986099598
H         1.61573057797954   -1.14202928007242   -1.09801382785362
H         1.25142186711583    0.47107455024602   -0.56155954867430
H         0.03782641704314   -0.71872755974331   -0.26543729273068
H         1.60148716534274   -2.73458228422804    1.09169346060481
H         3.23825486889624   -3.42073018108160    2.46084071859023
H         1.82726141072861   -2.95065617483903    3.51009576713930
H         2.98596714357422   -2.28529955477513    5.70321709206671
H         0.98342855449387   -0.68502361395185    4.06895092391200
H        -0.18672254614754   -0.19732141018983    6.41519469455912
H         0.75350867628104   -1.67773483181338    6.93451972995544
H        -0.79770607390507   -1.58101153067131    4.60263399631882
H         2.60107160973552    0.30436582200411    6.39221324439048
H         2.33673057878831    1.59754139824071    0.88096822892717
H         4.42804189340706   -0.24501278067796    1.41447944242558
H         4.75432276712323    1.28542780270212    0.91326705571684
