29
 energy: -42.026098100018 gnorm: 0.301665117779 xtb: 6.4.1 (79825abcba525fcdf90b791dcacef51065a7a4e7)
C         3.87628368037008   -0.40209743013174   -0.41022948824468
C         2.68743561136019   -0.53495000038756    0.62471297677551
C         2.23434882960874   -1.69474750893496    0.93602854236465
C         1.36912242584147   -2.09068805558966    2.14510118867562
O         2.00985099438074   -2.84987870036796    3.25817668607887
C         2.21169522261296   -2.33792167123216    4.53971932963606
C         1.21875224195472   -1.58926928439085    5.43652181036399
C         0.98358794206702   -1.86679672597383    6.91088360083252
O         0.86231102146473   -0.63064416947233    7.58323671163044
C         2.47701775424336   -0.84677436624465    4.96948488545185
C         2.28715842629711    0.02999929964961    3.88211808618550
C         2.15220320831615    0.64361181123117    2.72267104137494
C         2.09936025785743    0.86219875804663    1.28882134436305
N         2.63879775200285    2.08617243372216    0.70730726362148
H         3.84385370648524    0.61294807590091   -0.78026801858822
H         3.92329374174498   -1.03915951719856   -1.31961862438784
H         4.82237541821039   -0.58534787951910    0.10673719497805
H         2.75902379709973   -2.52712951467302    0.48918866735710
H         0.71491360541692   -2.88812706628397    1.72452582297224
H         0.67860020205262   -1.28249981812510    2.38143306991522
H         2.88188269550624   -3.07538736496602    5.05473149226669
H         0.24556215347762   -1.20522729767448    5.10582545495472
H         1.89469647445731   -2.20475926976320    7.39079114201844
H         0.09752137779082   -2.51471993728444    7.05796432184898
H        -0.07187587593964   -0.44866336966567    7.60783712408927
H         3.02712222893848   -0.25732574245819    5.70687442182905
H         0.98965509438786    0.89581942681715    1.18112966542997
H         3.59027695211462    2.32256672025297    0.85573274773473
H         1.98970941886204    2.77428973629198    0.41439441706747
