29
 energy: -41.997884679162 gnorm: 0.271074108902 xtb: 6.4.1 (79825abcba525fcdf90b791dcacef51065a7a4e7)
C         1.43431000000000   -0.25829000000000   -0.56263000000000
C         2.38005000000000   -0.51278000000000    0.59788000000000
C         2.06168000000000   -1.71062000000000    1.25485000000000
C         2.15199000000000   -2.57521000000000    2.59622000000000
O         2.96441000000000   -2.27979000000000    3.73724000000000
C         2.32144000000000   -1.84508000000000    5.03839000000000
C         1.01267000000000   -1.05957000000000    5.19328000000000
C         0.34085000000000   -0.62881000000000    6.47398000000000
O         0.03190000000000   -1.75414000000000    7.27460000000000
C         2.29334000000000   -0.34615000000000    4.98163000000000
C         2.52173000000000    0.13298000000000    3.68552000000000
C         2.83672000000000    0.48107000000000    2.46911000000000
C         3.20392000000000    0.88687000000000    1.05105000000000
N         4.60998000000000    0.76491000000000    0.76795000000000
H         1.55583000000000   -1.00145000000000   -1.35665000000000
H         1.53010000000000    0.74233000000000   -0.96452000000000
H         0.40135000000000   -0.33867000000000   -0.18352000000000
H         1.38653000000000   -2.33422000000000    0.65388000000000
H         2.50704000000000   -3.56285000000000    2.28269000000000
H         1.12495000000000   -2.73928000000000    2.95032000000000
H         2.74404000000000   -2.27733000000000    5.93888000000000
H         0.29087000000000   -1.12538000000000    4.39103000000000
H        -0.57820000000000   -0.06960000000000    6.26083000000000
H         0.96506000000000    0.04332000000000    7.07557000000000
H        -0.80030000000000   -2.12003000000000    6.93407000000000
H         2.76347000000000    0.19768000000000    5.79529000000000
H         2.69608000000000    1.79098000000000    0.71063000000000
H         4.88807000000000   -0.18521000000000    1.01372000000000
H         5.10831000000000    1.35062000000000    1.43576000000000
