29
 energy: -42.053017831691 gnorm: 0.251185996378 xtb: 6.4.1 (79825abcba525fcdf90b791dcacef51065a7a4e7)
C         0.91390976377376   -0.17085542437553   -0.09653176738024
C         2.03664601373407   -0.51385022821473    0.86668713150973
C         1.95790602234750   -1.66664625565073    1.66208076399798
C         2.97883375600294   -2.40798585725579    2.64344074561839
O         3.49975514713746   -1.76934560851630    3.81391303359040
C         2.62316952123687   -1.41406401064519    4.99744472724131
C         1.14895813360289   -0.99979940770658    4.90267554132006
C         0.27775446314929   -1.29084923661586    6.09991530108485
O        -0.71032656351050   -2.25321540177949    5.78312305313042
C         2.20529489956298    0.02504572892348    5.06918190151837
C         2.54041095250443    0.70230393029541    3.88992478285578
C         2.65496065900821    1.06968517757704    2.64415275549436
C         3.14630640457438    0.69471504994716    1.25549136732716
N         4.48001214498893    0.16418217579895    1.14691682546460
H         0.29923603816590    0.60967649818574    0.36223591358490
H         0.37134483452687   -1.07439774351458   -0.34384989344510
H         1.39603282314337    0.29450476851802   -0.97299565393359
H         1.24511102211106   -2.44344164542370    1.35486482497544
H         3.82693335601803   -2.82161542552294    2.08717463655111
H         2.39697607907307   -3.27624316255378    2.98209667125873
H         3.05253262197819   -1.86154815341918    5.88723031781537
H         0.66663738750419   -1.02779954844071    3.93545581205297
H        -0.28413102040416   -0.40745797535326    6.42657447973008
H         0.85569049912198   -1.65414692331252    6.95858409986018
H        -0.27586616734875   -3.08328976792355    5.52893075281525
H         2.22996402241268    0.56181315498303    6.01262670524663
H         2.97053304703107    1.52374367992609    0.56772877222223
H         4.75128896544148   -0.39185931256621    1.95789876535718
H         5.10934481608276    0.95184643398116    1.00240178913137
