29
 energy: -42.042305201212 gnorm: 0.243857031898 xtb: 6.4.1 (79825abcba525fcdf90b791dcacef51065a7a4e7)
C         1.39287158754333   -0.61073454803096   -0.47603819087016
C         2.25919032687516   -0.73451029595092    0.76498726228208
C         2.37692939067621   -1.97130919438804    1.41633639941425
C         3.06438480283445   -2.53399930864331    2.74514418892126
O         3.47080251556293   -1.52074548585643    3.67108542894777
C         2.63600053339145   -1.37493744722001    4.92695974990725
C         1.10282779607649   -1.38979573775448    4.87167726215087
C         0.29712289425001   -1.89342504783383    6.04397672246917
O        -0.30955955402750   -0.83984537683113    6.76834980230589
C         1.83210707668690   -0.11740182539840    5.07914950205063
C         2.08832440612797    0.74109129072221    4.00259432198991
C         2.40914039334609    0.77634804914640    2.73931580264864
C         2.84848777545113    0.75752546751823    1.28431638996866
N         4.27099733856941    0.85408441942952    1.08640864729575
H         0.48956477950069   -0.10229061096989   -0.12526300688305
H         1.12026914814737   -1.58536299842917   -0.86038045254739
H         1.85065551970831   -0.06772789386024   -1.32029487153848
H         1.75651830683718   -2.79791886578298    1.04528928478399
H         3.96236783237415   -3.10739275091409    2.49089868892760
H         2.31439522613851   -3.15886918946897    3.24929714800748
H         3.06860210310108   -1.93901696979596    5.74609545436223
H         0.61939438212396   -1.53506872953932    3.91558144459287
H         0.73538292673070   -2.60688755186945    6.75228529040157
H        -0.39536132159284   -2.49089362709676    5.43833301688637
H        -0.58870090990584   -0.23219798884649    6.06461848290201
H         1.75236343146577    0.25272346709435    6.09672708590232
H         2.25411325184927    1.48869742668003    0.73358177079943
H         4.77256181659692    0.12109138720728    1.58802527993320
H         4.67496697279088    1.74038140247804    1.38414239285965
