29
 energy: -41.996518290589 gnorm: 0.293173153802 xtb: 6.4.1 (79825abcba525fcdf90b791dcacef51065a7a4e7)
C         3.56777035165025   -0.40748657656643   -0.48412140343333
C         2.68845291460498   -0.56735842899142    0.74356528445777
C         2.33511198755491   -1.87307278669337    1.11511595988253
C         1.15921029582756   -2.20010308264863    2.14722624691343
O         1.88629883493129   -2.75737137511226    3.24723540166128
C         2.21690513276739   -2.08722745131421    4.56518125258765
C         1.12019486315990   -1.39223336451901    5.38255838749451
C         1.15721335145707   -1.92048273735670    6.79559451304104
O         0.72402094809353   -0.82084375045235    7.57402147048503
C         2.33072857679989   -0.64641143584150    4.96754386657847
C         2.12214387698398    0.22162111826096    3.88835866428475
C         2.40171663593524    0.52737409657794    2.65207683766451
C         2.28188912138015    1.00041605444483    1.21253650670215
N         3.07534502522474    2.09399421311328    0.71600946741351
H         2.84763051540755    0.17609234993033   -1.06580508826923
H         3.84767930460914   -1.41385593754798   -0.76838073559375
H         4.47655097147509    0.19738747246193   -0.32463200590146
H         2.96124843885014   -2.71860856389130    0.80064526635451
H         0.62567181341426   -2.99387626841331    1.61332067874381
H         0.53759050537616   -1.41825001523781    2.60484132100736
H         2.84043088792835   -2.81999973910240    5.06575445846239
H         0.08242559498254   -1.32351777932981    5.08718665536444
H         2.11169701268258   -2.27959845278645    7.19907744854534
H         0.42116971378716   -2.73162358063621    6.85557515871960
H        -0.18503061213880   -0.57046903707639    7.34308689624342
H         3.22696390541121   -0.43250755325467    5.54184631899092
H         1.23776332155649    0.89925351878938    0.91125659269745
H         3.95685437149686    2.04350103840746    1.22675076061879
H         2.56411241819811    2.87800820602796    1.11765915322078
