29
 energy: -42.022497315325 gnorm: 0.236370224967 xtb: 6.4.1 (79825abcba525fcdf90b791dcacef51065a7a4e7)
C         1.28831727650878   -0.20110047624893   -0.45768778715903
C         2.18142562978853   -0.50109581449211    0.73325009234313
C         1.95758700632334   -1.70705063321928    1.41395484039707
C         2.39615320007304   -2.45239108772138    2.75822881880041
O         3.29230384807315   -1.91144045098381    3.73470837532207
C         2.65293833551260   -1.27278161633675    4.95072689874742
C         1.14054526955035   -1.08209595890464    5.12451468942883
C         0.53266529059288   -1.17655982251378    6.50242875927404
O        -0.28234216803746   -2.32948163528232    6.59909440974947
C         2.00006703317920    0.06160991518324    4.74105820670562
C         1.96150164686742    0.67250469348678    3.48131663267461
C         2.76035135012438    1.08847369532482    2.53852946591858
C         3.31221934655260    0.66438588414045    1.18723569627313
N         4.61768844346691    0.05811428257833    1.20171895717964
H         1.40003589826096    0.83502449460573   -0.79158245752899
H         0.25811789344117   -0.36929639837461   -0.17075392085390
H         1.66761361491510   -0.84596827661018   -1.26853395378441
H         0.97202641773268   -2.06903537155089    1.09223011359691
H         2.87121693097744   -3.34927591403284    2.34627446371010
H         1.47823014752811   -2.79190398031699    3.25749347727779
H         3.44224178664030   -1.45821592485095    5.67109288083114
H         0.45406526021483   -1.52148104378172    4.41415060545366
H        -0.10958437108608   -0.29019321296748    6.57077538667788
H         1.34822819833047   -1.19393354493563    7.23581998942092
H        -1.08116866754519   -2.16685306521585    6.07200695640215
H         2.05457154263779    0.72398274834004    5.59960775934054
H         3.28936484474805    1.52366634428391    0.51469060486458
H         4.72314638199492   -0.81233377394123    1.72293269293208
H         5.38126892972940    0.73165337577004    1.22719677345967
