29
 energy: -41.969058507880 gnorm: 0.269775106181 xtb: 6.4.1 (79825abcba525fcdf90b791dcacef51065a7a4e7)
C         3.12260247248081   -0.19388783238412   -0.85853229018111
C         2.54810728645060   -0.55918962458930    0.49884851536257
C         2.26928282207548   -1.85048270624816    0.97066288356473
C         1.58743613344652   -2.37175291436823    2.31910929003315
O         2.64662569150227   -2.52852066855419    3.26924990682599
C         2.45581884930048   -2.09969321897348    4.70976176914181
C         1.27102545265711   -1.35096046725979    5.33390874180802
C         0.93030612148142   -1.81026060242815    6.73034799940395
O        -0.16084074435335   -1.16719830766955    7.36175870315945
C         2.56616176932159   -0.66277715494741    5.12677367116622
C         2.62956021116306    0.21504182420442    4.03725850901825
C         2.31541492261258    0.51636967396019    2.80821302078170
C         2.15037903802119    0.85026399284037    1.33455042483224
N         2.98468576869818    1.98969281386996    1.05587712486330
H         2.45162005455098    0.29119890596980   -1.57407062401481
H         3.32409955283691   -1.24795803917828   -1.00089312212477
H         3.74769107065891    0.70511979295289   -0.72347218544323
H         2.40129673293888   -2.75111395368508    0.35641121983840
H         1.02845637728315   -3.31057957662663    2.39618370558973
H         1.03648197201726   -1.46191427114205    2.59435480856001
H         3.08477396951554   -2.72618636432908    5.33284676359803
H         0.48757101341830   -0.69340352726410    4.98355271648986
H         1.64638974002298   -1.73422171854938    7.55753840671457
H         0.44214668981255   -2.77461007953579    6.54316402897205
H        -0.01650529008298   -0.22992216992992    7.56930082974847
H         3.16151603894813   -0.75091067736258    6.03043381580131
H         1.16106484733213    0.92867448690214    0.88033533298374
H         3.78399461854716    1.90741008844814    1.68420814564344
H         3.23221960510130    2.09259950263098    0.07328035940381
