29
 energy: -42.054186828922 gnorm: 0.315191765180 xtb: 6.4.1 (79825abcba525fcdf90b791dcacef51065a7a4e7)
C         3.61179833911878   -0.56826940255642   -0.23755989989357
C         2.58227477671260   -0.46613693381754    0.77094158701389
C         2.03886673201595   -1.53234843638821    1.20580626988558
C         1.07023028590139   -1.87313961018143    2.29539145027335
O         1.59478671853082   -2.74397022728041    3.23011079174304
C         2.03464325682766   -2.19394083892844    4.49278608932383
C         1.42384950739180   -1.24358320806116    5.43367190316279
C         1.35779488399579   -1.55360716703303    6.91214755448421
O         0.02745525774075   -1.43788268395687    7.38968316406119
C         2.74170612029445   -0.93555324517801    4.71911686511444
C         2.71561465661607    0.04287508879359    3.74423822712187
C         2.79996407829652    0.79501647490458    2.65342719004353
C         2.33113958226419    0.94492141007698    1.29169489845898
N         2.96858979111702    1.90885437099489    0.49528175492543
H         3.61266766299954    0.20472316020851   -0.97680968969969
H         3.52448070976675   -1.50718626980014   -0.77731407490446
H         4.54318759937813   -0.57608794764117    0.31561814339833
H         2.37968572501195   -2.44267835666111    0.71967862183154
H         0.24375061185982   -2.43131642070649    1.82936649696765
H         0.66015065895103   -1.01640617911550    2.82111545771422
H         2.44343641064104   -3.04054420499744    5.03035574991295
H         0.59666684156732   -0.59209711531103    5.18761591166557
H         1.84768212604515   -0.82055209451520    7.54883766622769
H         1.76750050682968   -2.55353693811630    7.18662436800086
H        -0.53883987413733   -1.98053063740276    6.83107224317821
H         3.58851299697778   -0.89323685761216    5.34147998939932
H         1.23941613930923    1.01690279149719    1.47845939976147
H         3.73121930731056    2.30915852159784    1.01084063320923
H         2.25603144341228    2.59244603445174    0.35110796315248
