29
 energy: -42.044685125452 gnorm: 0.253853960710 xtb: 6.4.1 (79825abcba525fcdf90b791dcacef51065a7a4e7)
C         1.36077596655489   -0.03902004491926   -0.53808725982757
C         2.14961064201048   -0.52106027600469    0.66663255689562
C         1.63042299255842   -1.51402551053514    1.51058393850848
C         2.35241369683062   -2.33400895857542    2.67733232532750
O         3.11262859489337   -1.61283344740295    3.65262976313493
C         2.47430500456065   -1.13999441710290    4.94272304057245
C         0.95475566874526   -0.93395156163285    4.99183667823949
C         0.30137119138644   -1.38071773509394    6.27658466519516
O         0.52383018928254   -2.76845383263499    6.44244795036391
C         1.86762042763642    0.23203087478260    4.95954803113577
C         2.10075755597899    0.89444325482526    3.74773720503555
C         2.65955184719802    0.97635679870176    2.57254452764048
C         3.29426646272151    0.56956573769684    1.25267257244604
N         4.54307693793702   -0.12758886021777    1.41537613712566
H         0.94929076618567    0.96976672865630   -0.43537001721029
H         0.63196552337055   -0.76473129483347   -0.87588927349585
H         2.16421473680138   -0.03022945590733   -1.29412996113109
H         0.70644364100413   -2.07078862141274    1.30528800598434
H         3.08697665654664   -2.96274430187729    2.16264459727995
H         1.57946130818054   -2.98955983386000    3.10149572180984
H         3.00560844460462   -1.61951252226447    5.75764145684430
H         0.42560748300670   -1.31240275902762    4.12829277001799
H        -0.78390016104321   -1.26740448233930    6.16636735033189
H         0.71116561777037   -0.78739492153380    7.10323088077745
H         1.46804357473945   -2.93564888146539    6.29112078881478
H         1.79326018778175    0.92099467469445    5.79538010151521
H         3.43414994300983    1.33943071474095    0.49178974824977
H         4.51339669781915   -0.92856759805438    2.04626210041168
H         5.33560601747350    0.44726198217653    1.69609548910015
