29
 energy: -42.017962681170 gnorm: 0.275558040239 xtb: 6.4.1 (79825abcba525fcdf90b791dcacef51065a7a4e7)
C         3.48738073180896   -0.17184694728540   -0.73300370227287
C         2.59884747053567   -0.50586883457029    0.45228562427734
C         2.26417716229600   -1.71430712899524    1.08114362059159
C         1.36211790726235   -2.36193148689255    2.23084663592688
O         2.21885930064608   -2.86101218131166    3.26338649292238
C         2.46285707625414   -2.24944006257267    4.62787138459327
C         1.35923119426326   -1.55148310082448    5.43332902175129
C         1.03081879079543   -1.67677360753081    6.90082219721249
O         0.13965561606298   -0.73949792101609    7.47541127648172
C         2.52982199821453   -0.78509711823376    4.94727411817102
C         2.27985066393252    0.01044108103035    3.82199110225326
C         1.90806048124478    0.62138264047015    2.73177956991448
C         1.99737041724200    0.86194879174156    1.23359558289236
N         3.02176040176099    1.84949297737921    1.01586588253690
H         3.63104495139582    0.84847403622503   -1.10155131052186
H         3.13615436192699   -0.81793896574729   -1.52744490307668
H         4.44891027270901   -0.59832406237430   -0.40018256330953
H         2.89624511628484   -2.54928030709796    0.75072068377977
H         0.73430428309920   -3.10900820926474    1.73333206195057
H         0.68005091078830   -1.61824244290826    2.66539024751985
H         3.20526597418070   -2.78423445922064    5.21022608905300
H         0.48505864066337   -1.22440808034442    4.88764093212794
H         1.93008345834030   -1.80291124944344    7.51581326754731
H         0.53011308790656   -2.63780856352559    7.07115426992112
H         0.34946412265272    0.18359078551386    7.26028192151018
H         3.32815384063497   -0.31489453754313    5.51330556733735
H         1.13303675273569    1.12319407558510    0.62050475736604
H         3.88220208350321    1.62500378589956    1.51557546808701
H         2.68016848595982    2.64857581826822    1.54703512590301
