29
 energy: -42.049942586442 gnorm: 0.241675720264 xtb: 6.4.1 (79825abcba525fcdf90b791dcacef51065a7a4e7)
C         3.72769511702121   -0.55745013634162   -0.40390930635346
C         2.65453658662153   -0.54163713981850    0.67035950747503
C         1.99071320181908   -1.69259208959454    1.12028274990816
C         0.92955430739032   -1.85986854474685    2.30388133832061
O         1.39108315612417   -2.72658601789754    3.34552324181762
C         2.14600802257181   -2.28655532850605    4.58319679609786
C         1.56867386057446   -1.18202751811915    5.47795910442705
C         1.28709074249928   -1.33312100143131    6.95273717117615
O        -0.08274254768721   -1.51091302219637    7.26056322075875
C         2.88690422451813   -1.00483370503074    4.82623006866722
C         2.96406034716916   -0.12596983441191    3.73844618635491
C         2.67362612480096    0.71647588710013    2.78662062954986
C         2.35305221098668    0.98278667421630    1.32487013012427
N         2.84676695561907    2.10199128924804    0.56615320602716
H         3.70589249298891    0.33738524046639   -1.03344560440258
H         3.73521380761216   -1.38534143475006   -1.10138414324874
H         4.68280369755093   -0.59113899565023    0.14729334091135
H         2.28156286172301   -2.64653846266914    0.66065005192074
H         0.07226964324659   -2.40022656480623    1.88810430023434
H         0.54400868548288   -0.88859466176187    2.64314310785299
H         2.41412246226397   -3.16916672349225    5.15365694489192
H         0.77607270812015   -0.69997969815561    4.92267130834945
H         1.56085303016102   -0.44997589684009    7.54257664212344
H         1.80794276457841   -2.22755790012724    7.31605962559187
H        -0.36654453804875   -2.43030868657064    7.13187346854669
H         3.74515815543608   -1.04516871098998    5.48999893563909
H         1.26210686682962    1.01387448159237    1.31627125986985
H         3.78802624455011    2.46319529801346    0.72116148923803
H         2.14483295985208    2.83876211888700    0.60877477187836
