29
 energy: -41.996018811475 gnorm: 0.291592944058 xtb: 6.4.1 (79825abcba525fcdf90b791dcacef51065a7a4e7)
C         3.10994574423827   -0.25295567020446   -0.77021451688162
C         2.53113410670630   -0.45791546322542    0.61864880931457
C         2.34925607131644   -1.77484980875346    1.06630270980931
C         1.70870542503548   -2.29618685647410    2.43482300143980
O         2.79993618965046   -2.65925588757596    3.28724437247812
C         2.55634951561515   -2.20235082919000    4.71106939631012
C         1.30279063973160   -1.57011057171402    5.32974412102884
C         0.78046577005488   -1.81147677059296    6.72473793454954
O        -0.12528856339397   -0.90677115792665    7.32800153298482
C         2.50963662647024   -0.74872361288486    5.07929278843221
C         2.18575292768370    0.10736818910648    4.01918205312673
C         2.37619770055867    0.48502625223904    2.78583544066206
C         2.10501420451124    0.98662859780093    1.37684352910181
N         2.95613957967482    2.09486824792046    1.03127869408665
H         2.70961800519075    0.75962237736201   -0.87950795375906
H         2.67530729355792   -0.82812529185357   -1.57780414299258
H         4.09846190735673   -0.74259202372061   -0.75337009039317
H         2.73970862618183   -2.44943353919438    0.29276989392827
H         1.17416281721841   -3.16180249717828    2.02890664050003
H         0.97461090536705   -1.55213011001152    2.77335176831227
H         3.21744871343038   -2.89499829242641    5.22048113512120
H         0.50875555220325   -1.31587602283351    4.64140969381039
H         1.68155495122184   -1.84676379163354    7.34891320684976
H         0.35698918243693   -2.74706863954140    7.11028021634413
H         0.17083567417699   -0.01391929495430    7.08817034855304
H         3.11330133291984   -0.49527124634358    5.94541440885848
H         1.03160939029165    1.17939126890464    1.33386918983640
H         3.92307281586621    1.78929459340952    1.14141412506774
H         2.93534373009940    2.33205443971672    0.04099114430179
