29
 energy: -42.042929470184 gnorm: 0.260122014967 xtb: 6.4.1 (79825abcba525fcdf90b791dcacef51065a7a4e7)
C         0.97498683507730   -0.19074370816234   -0.13395471368205
C         2.07743450805155   -0.54937012216507    0.84684546606558
C         2.01047568281518   -1.77274381679371    1.52997284642116
C         2.67566253819634   -2.57545236984785    2.74163727133741
O         3.40045018286838   -1.76565743118601    3.67337804525829
C         2.69136837412748   -1.28243169197976    4.92200550402786
C         1.20852481778121   -0.88908386652635    4.94066100075069
C         0.29121078388391   -1.24050050846480    6.08614352797813
O        -0.39939404793596   -2.45603955251974    5.86628023256313
C         2.25938756414813    0.14646845818888    5.07180263924013
C         2.37708230552055    0.88822679785083    3.88961343792112
C         2.57112329762979    1.03282358005984    2.60841149176317
C         3.11920723148078    0.72130595568072    1.22531190683626
N         4.46434565496597    0.21235842930107    1.28530859929561
H         0.50469076800662    0.72992543234576    0.22480927458587
H         0.24543743234855   -0.97500531498494   -0.29087214886272
H         1.47625111611000    0.00790781584574   -1.09648439663574
H         1.27189302690220   -2.43248597891082    1.05552014841508
H         3.46598432830254   -3.21763472237910    2.33816778205312
H         1.97868164686756   -3.10615599895590    3.40472718429213
H         3.16840186517687   -1.68643602347685    5.80830831488719
H         0.65314134447209   -0.99945267008092    4.01962937732657
H        -0.56342504898055   -0.55319340795762    6.08900317176678
H         0.92721224019936   -1.20397624588668    6.97915837038445
H         0.27398717996804   -3.12568974823216    5.66498603766850
H         2.61059433081607    0.66821261662636    5.95681834016291
H         2.95718151645765    1.49298859946236    0.47068902556465
H         4.49193331604466   -0.72676627926244    1.68248445364017
H         5.04171456743119    0.87226574711870    1.80350418097004
