29
 energy: -42.007645188472 gnorm: 0.267544236891 xtb: 6.4.1 (79825abcba525fcdf90b791dcacef51065a7a4e7)
C         1.52267740230110   -0.34302528721162   -0.62980616725228
C         1.96311617991426   -0.60617364749070    0.79943817596340
C         1.45675592163395   -1.73424561480113    1.46189015516837
C         1.81668819387915   -2.34621495601002    2.89398216949149
O         2.96291368988507   -1.92067149041363    3.63849927307041
C         2.66482796946156   -1.21819771590835    4.94733468719297
C         1.24305757030014   -0.66296576531413    5.10284025171709
C         0.15175153267344   -1.14317740068218    6.02779260798388
O         0.41752036150268   -2.38038349717827    6.66143135932229
C         2.41378839934446    0.23912831895192    5.20028176817837
C         2.70468268492504    0.86806087725939    3.98313218039828
C         2.87947971539223    0.71863453863868    2.69971628946800
C         3.19506746850861    0.45927219954851    1.23563322204225
N         4.60788318381498    0.23869916342263    1.07033392082223
H         0.56955955108303   -0.83798630760301   -0.83980999161404
H         2.24981356443797   -0.93377209033375   -1.17222933862757
H         1.52038999819944    0.72312693720099   -0.91354178379768
H         0.71806708329288   -2.41452877417693    1.01756702236931
H         2.00423437712855   -3.36291785246104    2.53213139117114
H         0.86808301907322   -2.30786010368956    3.44696866850646
H         3.00712476769719   -1.76237168969167    5.82084524693228
H         0.81077649212063   -0.65349747882059    4.11189387547546
H        -0.75529436750864   -1.18461997691916    5.41268945735984
H        -0.11038272782703   -0.37955715536678    6.77040766468171
H         0.50763445506979   -3.06187750162463    5.97598377687167
H         2.96985313829679    0.43490745952019    6.11202650250682
H         2.85560177497269    1.34105233775965    0.68934670277251
H         4.99108450003808   -0.58913786853859    1.52674114694292
H         5.01142601007560    1.13109093540545    1.34988588779251
