29
 energy: -42.042893723526 gnorm: 0.260117004707 xtb: 6.4.1 (79825abcba525fcdf90b791dcacef51065a7a4e7)
C         1.32074274759028   -0.77844080346518   -0.32805675805752
C         2.20812672775193   -0.77094707849523    0.90420388083927
C         2.40974180465745   -1.97349827249563    1.59775394678311
C         3.24022103092899   -2.33320465451237    2.91527464984905
O         3.40704887700807   -1.33025567741972    3.92298875618167
C         2.35687857009284   -1.19805203710216    5.00698089060162
C         0.86569465836916   -1.13620451430160    4.65139486128465
C        -0.11292631225009   -1.72562263979735    5.63728325787495
O         0.51038078509622   -1.75947513545380    6.90738261787460
C         1.62238904162321    0.10750895062038    4.92428694444019
C         2.02187734208714    0.77683421248664    3.76065411866761
C         2.31855439346680    1.06014446939211    2.52301251048072
C         2.92981126892732    0.72939444918424    1.17120888540052
N         4.36051181286979    0.57494277498527    1.13563890391944
H         0.50600628748174   -0.05116918888694   -0.25875916917408
H         0.80514019552485   -1.70866561734459   -0.52996635362495
H         2.01506749873715   -0.51918999178124   -1.14530448963318
H         1.82243244090352   -2.83266247975374    1.24736273613406
H         4.25968658603751   -2.59856167559314    2.61515806492751
H         2.63418666454673   -3.16598171349380    3.29779477940927
H         2.75868550083923   -1.57178897072886    5.94249405403224
H         0.71383801819183   -1.29489162050524    3.59276877804864
H        -0.26753487238713   -2.75878769859128    5.30341530042480
H        -1.08710322818002   -1.22672466881542    5.56388330792986
H         0.54259043049062   -0.97538402735148    7.47883400055616
H         1.43868637870400    0.65265205059837    5.84509537296320
H         2.55128848339016    1.40651894165720    0.40346865435636
H         4.83095001218342   -0.20152831794710    1.60066094114307
H         4.90693812228287    1.38918762465992    1.41092566357641
