29
 energy: -42.044073928902 gnorm: 0.242515005587 xtb: 6.4.1 (79825abcba525fcdf90b791dcacef51065a7a4e7)
C         1.47537315315486   -0.33342357926120   -0.58635012893533
C         2.10815966020579   -0.64160462677684    0.75922723697831
C         1.85061315161722   -1.84687264061722    1.42914403179564
C         2.34067120990815   -2.42776649886970    2.83532704820266
O         3.23144853044844   -1.67314361432566    3.66375080144743
C         2.74930352008546   -1.25329759715224    5.03730099986547
C         1.29179558521033   -0.87221086754372    5.32771293792882
C         0.42513416696379   -1.44771082328059    6.42077593400412
O        -0.49625038538874   -2.37571309372267    5.87978391340093
C         2.34133201605674    0.17140303703556    5.27094522891425
C         2.39247926704930    0.87097983823190    4.05867255940992
C         2.77599047365407    0.79865866916021    2.81459563760781
C         2.94270401668546    0.71773077838765    1.30593366404488
N         4.27277756907867    0.53982225262333    0.78509062734936
H         0.59352795991163    0.31177410194390   -0.64627227383690
H         1.27986355555129   -1.28075187011359   -1.07243323609834
H         2.24598960680762    0.24539003895186   -1.12330149985449
H         1.30150241496651   -2.62852729959884    0.88751425452257
H         2.86005027346158   -3.34164514852687    2.52732455185144
H         1.41430794041972   -2.60152025719878    3.39993103645775
H         3.19118512433376   -1.90982660986200    5.77893664241434
H         0.60936181528798   -0.73757613795030    4.50001193409080
H        -0.21973980108035   -0.63348430209793    6.77287588140884
H         1.03321574713014   -1.88803689950476    7.22056160032092
H        -0.04300271129819   -3.16988111499328    5.55381349207634
H         2.63554557829094    0.62603534180158    6.21198921206076
H         2.50358259754077    1.58866471327601    0.81619027116945
H         4.61832508542404   -0.32912833843047    1.19250533043091
H         4.90171619166213    1.31433232317756    0.98985768975775
