29
 energy: -42.042717272826 gnorm: 0.242637408424 xtb: 6.4.1 (79825abcba525fcdf90b791dcacef51065a7a4e7)
C         1.41104282937585   -0.06421799036027   -0.63972773447049
C         2.21557177384922   -0.53858101764356    0.55763840072018
C         1.92754342092781   -1.75419813899083    1.19568572694739
C         2.33054506311611   -2.40013848967602    2.60113795524659
O         3.17463048823628   -1.78851983621443    3.58229458054221
C         2.51208238007184   -1.29739745544432    4.85320103140525
C         1.02302640205667   -0.95863411891982    5.00101074934794
C         0.37488200672495   -1.28776171251411    6.32338457900588
O         0.22642135817523   -2.65804024755406    6.64448626086671
C         2.03984091795569    0.11837176770808    5.00613296629498
C         2.21631981365315    0.92599501872354    3.87554531507025
C         2.43889870147358    0.90517079118653    2.59099726222566
C         3.16397331453067    0.65457021609059    1.27879691384058
N         4.50867156225818    0.16440947627705    1.43226891807653
H         0.96157684827629    0.93165303855731   -0.57854863410078
H         0.52795191260205   -0.68298189052257   -0.73571392814555
H         2.10703715964794   -0.07989326050886   -1.49561200024346
H         1.21669026984289   -2.38699005118799    0.64784303233661
H         2.72685141479478   -3.40429238074209    2.41563709575681
H         1.38542873032792   -2.58755789611587    3.12910198628285
H         3.04364292528474   -1.72738606268927    5.69514294255342
H         0.25198665700113   -1.02677757233631    4.24616947439761
H        -0.63080047183447   -0.85060462035443    6.34064979987462
H         0.97830163161665   -0.88277632516433    7.14507733906923
H         1.08665880444237   -3.06433057913887    6.83765125005227
H         2.19748471859089    0.69388155823830    5.91319014589288
H         3.21916712091144    1.55972101928986    0.67146026354531
H         4.47179624316881   -0.66715129116320    2.02185509106252
H         5.01459704672119    0.94323088288993    1.85040263963415
