29
 energy: -42.036129040051 gnorm: 0.252500632941 xtb: 6.4.1 (79825abcba525fcdf90b791dcacef51065a7a4e7)
C         1.07871826604715   -0.16997399662236   -0.25907117521599
C         1.99211004172782   -0.53248826850160    0.89862983688655
C         1.85535166855407   -1.68898165137338    1.68068476451105
C         2.77579727793820   -2.46128840978479    2.73485144146345
O         3.42119329143511   -1.68085615794464    3.74659023325973
C         2.46354112708862   -1.31994394783337    4.86373798592246
C         1.02474262202761   -0.79293028008170    4.94127160487588
C         0.19410247715194   -1.21152058072378    6.12950886128441
O        -0.23965186144330   -2.55710425168259    6.19332014931729
C         2.17049370609738    0.13499065726762    5.08303493467585
C         2.63382699892381    0.83909425390329    3.96446935405887
C         2.74724158514569    0.92849180517712    2.66863606330226
C         3.16280019397454    0.63298418376819    1.23671781072977
N         4.46962511242202    0.12647215208073    0.90857335545920
H         0.22241298689502    0.44371068309796    0.03699307346302
H         0.65102257654014   -1.10231951509115   -0.60510572851001
H         1.61916366348443    0.34036790184715   -1.07433899458779
H         0.99437128036528   -2.30807246049275    1.39553784577216
H         3.64508510161218   -2.90255619030628    2.23543602539522
H         2.30545387523488   -3.25113396350566    3.33654739507364
H         2.64193718341562   -2.08722196995020    5.60923934774682
H         0.54364273411120   -0.69634780993896    3.97786829399439
H        -0.73949235180242   -0.64505521153071    6.23109303291588
H         0.83333116348640   -0.96360379821057    6.98579815224168
H         0.50896030473474   -3.08720500361900    5.87556862981937
H         2.22711746465674    0.53272758283865    6.09170481507924
H         2.85359637937353    1.51991460686509    0.68088549587763
H         4.73686633252788   -0.72839117433380    1.39668786741129
H         5.19344694450794    0.83549445047695    1.01215193950326
