29
 energy: -42.025039870526 gnorm: 0.264300604931 xtb: 6.4.1 (79825abcba525fcdf90b791dcacef51065a7a4e7)
C         3.15273414887926   -0.38297911899498   -0.91313022113517
C         2.53022541506772   -0.53716858778981    0.46334398845009
C         1.92560739399221   -1.68819392016281    0.99000084023677
C         1.41056669881612   -2.27643856008434    2.38414809113486
O         2.49919713322952   -2.41716511533792    3.30300918952535
C         2.46644760767584   -2.02930746235000    4.76720464643275
C         1.21069675027593   -1.39170418305961    5.37584889965675
C         0.98498745209062   -1.91596174544769    6.77273758605110
O         0.24409510897602   -1.03166209980067    7.59243435145380
C         2.39119855505427   -0.55809147716879    5.05121832429168
C         2.21364525800831    0.27209222516851    3.93726214512131
C         2.05200255491161    0.55265533381646    2.67425195940744
C         2.31959256021940    0.94903304657246    1.23144779339474
N         3.54160257022924    1.69246042216849    1.07010386486896
H         2.29513243110507   -0.17512626033239   -1.56030727523786
H         3.72529769691485   -1.24801330704017   -1.22267588478245
H         3.69890085864295    0.57502956264598   -0.87976872596137
H         2.11510860714202   -2.51317733732834    0.29045736344486
H         0.95079299434195   -3.23331485035907    2.11435143869415
H         0.81181225028585   -1.47777203458930    2.84321434634547
H         2.99738331097787   -2.76495610701899    5.36154573975546
H         0.41132089254049   -1.21149566059643    4.67054446661251
H         2.00829522642963   -2.02574703558606    7.15167035250328
H         0.54052341179830   -2.91677951288851    6.83694754271792
H        -0.51801418160208   -0.58036982580709    7.19504572200355
H         2.89521989463421   -0.19685553774681    5.94244609302796
H         1.54966214777092    1.43786210738561    0.63190174967159
H         4.30985349873247    1.15156246175114    1.46719939600997
H         3.76975665733827    2.54198772786622    1.58353181029718
