29
 energy: -42.000228089519 gnorm: 0.277685717963 xtb: 6.4.1 (79825abcba525fcdf90b791dcacef51065a7a4e7)
C         3.64750493649015   -0.17497462788872   -0.60455159732810
C         2.79552795538567   -0.51111725730831    0.60669409453390
C         2.54761555436971   -1.80736638563620    1.08215948839470
C         1.40554983891218   -2.17316412208599    2.13895803460978
O         1.90559675495593   -2.97729412231362    3.21252864719614
C         2.20770553783405   -2.28265253844964    4.52461783246726
C         1.15452226566580   -1.56351965983331    5.37758234549693
C         0.77729109973249   -1.72297135163740    6.82994618325228
O         1.03294923995529   -0.46598466226891    7.42780357217535
C         2.41960498657672   -0.88195658921296    5.01853253376245
C         2.51632308644976   -0.09716629878549    3.86251410493369
C         2.03857803361483    0.56319023321196    2.84480713257662
C         2.08349995194681    0.82538363427609    1.34826434139844
N         2.74544892357415    2.04784523584757    0.97485336298193
H         3.17566613322467   -0.35687095380070   -1.57501722086281
H         4.49822222169535   -0.84254009203428   -0.65522833838487
H         4.05123076803612    0.83089777252881   -0.39859561901846
H         2.87198727575304   -2.80546958700806    0.75898398036690
H         0.81602753716836   -3.00422875312073    1.73697623474979
H         0.75996813766839   -1.32561984613315    2.40730465838701
H         2.67702243715302   -3.03780397612188    5.14574669061482
H         0.31519694919323   -1.44570789935024    4.70632628812006
H         1.46712460909225   -2.37770084562620    7.37607863202134
H        -0.26280570304793   -2.04575409612676    6.96154145447844
H         0.36564638123853    0.13849368317530    7.06489058111821
H         3.32610777592259   -1.02102320509577    5.59967716125544
H         0.99558994103128    0.88934097213357    1.40795860116324
H         3.60786603274970    2.14428593694361    1.51095118732944
H         2.09251238965816    2.81885305399307    0.84608994798641
