29
 energy: -42.018196668024 gnorm: 0.278993168655 xtb: 6.4.1 (79825abcba525fcdf90b791dcacef51065a7a4e7)
C         3.63739658082619   -0.39815554378352   -0.53237082579562
C         2.53166170160553   -0.61103029884700    0.48645569687840
C         2.26683979076625   -1.85258638803448    1.08327856650552
C         1.22433079054632   -2.17171717978700    2.25215655906043
O         2.26873781681116   -2.56881964924108    3.14700259865748
C         2.18952089970654   -2.15039101653771    4.60096849633961
C         1.09801578258427   -1.47828391817985    5.44404867259813
C         0.98527230665796   -1.95616415449198    6.87093629240645
O         0.85024593085949   -0.81709326036313    7.69984850505019
C         2.23472160996427   -0.68543715063488    4.92138901232993
C         2.21517439672505    0.16966142616347    3.81231139622543
C         2.11394024592353    0.55742129545374    2.57157271794341
C         2.19087994714253    0.92286250409500    1.09816282459097
N         3.12405304565607    1.98150116960215    0.81444340710477
H         3.21533374103361    0.44002622905776   -1.09525263518744
H         3.83479299357831   -1.23080415586954   -1.19544142959877
H         4.54914379325060   -0.08456613703049    0.00388508579073
H         2.67026392755532   -2.80919833947054    0.72549097095990
H         0.47512336989931   -2.95096713491409    2.07537396162023
H         0.65500860057604   -1.31002716582554    2.62696251696588
H         2.82006869835163   -2.80524238865717    5.19248541410995
H         0.14501580530297   -1.17057607364668    5.03657076077470
H         1.95951759953255   -2.40502042822716    7.09935650921906
H         0.14728001710497   -2.65388579742733    6.99035492466102
H        -0.00108710736646   -0.44660268201964    7.41636692976250
H         3.06706851216430   -0.39322991460508    5.55434201953849
H         1.21589783650490    1.16511204374829    0.67163360936641
H         3.79914495720149    1.82012285355644    1.56188765660235
H         2.87765626377040    2.87892511417925    1.22830096760218
