29
 energy: -42.031572009445 gnorm: 0.254457984833 xtb: 6.4.1 (79825abcba525fcdf90b791dcacef51065a7a4e7)
C         3.58817994847667   -0.53236403850593   -0.62928959100882
C         2.68884303367929   -0.49424485759650    0.59370378972802
C         2.29203155227293   -1.73487405730934    1.11444320230564
C         1.14670691092785   -2.06036748200867    2.18085341743505
O         1.60156798255601   -2.85010009313670    3.28477807467224
C         2.10813565516846   -2.17331906404204    4.54204944517753
C         1.22641553094573   -1.36587755194207    5.50356044674592
C         1.33617854081487   -1.60716599411347    6.98909767381501
O         0.23503962312343   -1.18088788832679    7.76921954603234
C         2.36779931226321   -0.72097210617980    4.81419892386689
C         2.29709565552678    0.26533791074329    3.82232071727804
C         2.46983700230660    0.55118776852820    2.56196805416688
C         2.30089329199449    1.05395335704867    1.13750728475940
N         3.23303724756289    2.09344382868390    0.78737620947976
H         3.09378031476504    0.12402410705578   -1.35195497759270
H         3.71593879714241   -1.54731889672518   -0.98351549772385
H         4.56184379037501   -0.09545941824562   -0.34949542756694
H         2.35572329576628   -2.68590938675878    0.56915008134915
H         0.50197165741872   -2.77767802442451    1.66164596991709
H         0.63343838239506   -1.13690066360703    2.48231882834360
H         2.80735062178159   -2.89588666752930    4.94862983185621
H         0.25075817826772   -1.16264365221995    5.08437073863641
H         2.21362821682641   -1.14776334373151    7.46008908279105
H         1.44960398952866   -2.69198672496853    7.10574256793049
H        -0.54659253752741   -1.72591526681737    7.58377592246599
H         3.15703171938772   -0.66063496245841    5.55735942513470
H         1.28074612008583    1.44177046987711    1.12751910636637
H         4.18540616284042    1.73803665798223    0.87189927539040
H         3.11115499954157    2.94896486091649    1.32643805341518
