29
 energy: -42.013454264523 gnorm: 0.271389484855 xtb: 6.4.1 (79825abcba525fcdf90b791dcacef51065a7a4e7)
C         1.40912343055216   -0.06479687560735   -0.53770343484313
C         2.16647531579593   -0.66071466126385    0.63586926561440
C         1.76301746056316   -1.81068065912839    1.33055600378942
C         2.47239313971171   -2.56919477667004    2.54562296778174
O         2.95389433483242   -1.55760698467516    3.43673046960320
C         2.42044936495330   -1.24281920255190    4.81938000885839
C         0.98247874464764   -0.78400844305459    5.09438681502224
C         0.47241656988513   -1.01403935900237    6.49581866893809
O         0.25807395098711   -2.37461339335044    6.82094266635324
C         2.05984502643347    0.21173800924840    4.89030307119420
C         2.04709983126938    0.77432882622254    3.60774394419135
C         2.53763582310441    0.91989338137454    2.40848418285032
C         3.30345898010688    0.45987331935937    1.17872806159646
N         4.47490690013158   -0.25809332551191    1.60798117737494
H         0.78151500833066    0.72740595689678   -0.11812746214740
H         0.96623914788357   -0.77951394369499   -1.21958663981511
H         2.26077221547152    0.39119810952171   -1.07057735871793
H         1.00253121699944   -2.38459500191592    0.78452265027374
H         3.38332229438718   -2.87574730085793    2.02023933609472
H         1.96617148904032   -3.44984708341123    2.96432106586976
H         3.11298086492373   -1.83036993460563    5.41225219229318
H         0.13598007056747   -0.80315239546563    4.42207376120708
H        -0.39555455216015   -0.43556979765582    6.83464123332220
H         1.26845873851680   -0.81806036383059    7.22466465902720
H        -0.54858762091994   -2.67692724424370    6.37339774233972
H         2.42339190326401    0.84937359582793    5.69034711524085
H         3.48866088088548    1.20134304857146    0.39954578226192
H         4.37685971061316   -0.99906495064824    2.30210851129377
H         5.26821935560196    0.32447971958400    1.86994145098246
