29
 energy: -41.993084362975 gnorm: 0.267649916326 xtb: 6.4.1 (79825abcba525fcdf90b791dcacef51065a7a4e7)
C         3.28148049680569   -0.26945389792287   -0.81583227248207
C         2.69594868524185   -0.49223901661583    0.56745802774123
C         2.42760577668347   -1.82533370444949    0.91190010172669
C         1.68506358414026   -2.20409019245710    2.27576220722381
O         2.43837669185646   -2.76236861597326    3.35746016595640
C         2.40013918657259   -2.19209923062960    4.76056568794763
C         1.24543910165937   -1.42062559277986    5.41278663047171
C         0.95709055584148   -1.81377615307343    6.84085400250759
O         0.10897212005291   -1.00350490724924    7.63266569227886
C         2.47129756725143   -0.70989496077492    4.98149477245084
C         2.29333414954181    0.07648834599869    3.83626166533245
C         1.86462323758427    0.58526106082839    2.71492496293049
C         2.07912217522918    0.92169998258914    1.24822709041114
N         3.00115746276948    2.01085809123320    1.05952063680540
H         2.80142285409714    0.68869632490547   -1.03722438317723
H         2.95192376137046   -1.08694617973126   -1.44434671787752
H         4.32785520489620   -0.00039901468591   -0.59244664567593
H         2.85119670887529   -2.73719431248704    0.47036824783967
H         0.92338615952749   -2.97605719893768    2.12178567425164
H         1.07574511662868   -1.49430997584516    2.85200867015310
H         3.11582688564497   -2.74792174410811    5.35652327948226
H         0.32170607717837   -1.35937952591539    4.85430887403603
H         1.90309460669308   -1.86797953016431    7.39306772000019
H         0.55499460154367   -2.79280546125640    6.55253500884369
H        -0.07690494323005   -0.11375432175522    7.29180410471480
H         3.19528351655065   -0.35120280733631    5.70675341941554
H         1.23011419600200    0.84189650350797    0.56703769043765
H         3.74576319682824    1.91571006322043    1.75015375811763
H         3.08353014111751    2.61259813294749    0.24191263065018
