29
 energy: -42.017454734323 gnorm: 0.262079304011 xtb: 6.4.1 (79825abcba525fcdf90b791dcacef51065a7a4e7)
C         3.32507452531370   -0.30136391425378   -0.69060493751876
C         2.41756897870545   -0.49139233846140    0.51201538822291
C         2.20565409113628   -1.75092318925466    1.09207040428280
C         1.42042667832423   -2.14078449332630    2.42862242645038
O         2.32651888921233   -2.71075771534605    3.37907144391842
C         2.52776853329276   -2.07988159274337    4.74174099634928
C         1.28720656968509   -1.52041936002320    5.45019284382268
C         0.97690219462053   -1.97834519808385    6.85415287729415
O         0.01225007624864   -1.04159004833824    7.29545344225316
C         2.38313933501008   -0.61536709720522    5.03342978527928
C         2.08498844537471    0.13672461104218    3.89014824979461
C         2.38291547227469    0.56733926425090    2.69605896388697
C         2.21549712699810    1.01032672488111    1.25171246861035
N         3.18488532313254    2.01141974379215    0.89098559585125
H         2.96122169903759    0.51291330652459   -1.32470696797800
H         3.32866263141490   -1.17214599720355   -1.33376694681891
H         4.34870804332852    0.03777841645997   -0.45747707876510
H         2.59351816638690   -2.65367406031279    0.60169121642510
H         0.70882328160971   -2.96855831766637    2.33803857756336
H         0.79460459917791   -1.28689366448439    2.72244908941840
H         3.23753937805917   -2.73570441427362    5.23411763981058
H         0.45632783286953   -1.59322744913796    4.76224609662802
H         1.79756048530985   -1.92900370688587    7.58002273908586
H         0.60568394114232   -2.99567631901602    6.67939077296991
H         0.45510942905180   -0.24782549074957    7.63634408796342
H         3.04061012335825   -0.15674056641037    5.76569318638636
H         1.21597243447885    1.04270935770842    0.81455815226517
H         4.02189572762297    1.78249979704600    1.42715179706273
H         3.15210797935127    2.29801892816417   -0.08581824384338
