29
 energy: -42.011973220156 gnorm: 0.278312165175 xtb: 6.4.1 (79825abcba525fcdf90b791dcacef51065a7a4e7)
C         3.04769416835568   -0.37105589097685   -0.84757342669071
C         2.52272574228521   -0.55309247398920    0.56566526611570
C         2.47372343620494   -1.83253441917493    1.13874186416813
C         1.51285063090493   -2.38865108481891    2.28869966746512
O         2.50840325989578   -2.64848907484379    3.28398104312863
C         2.39328240176442   -2.15119658602119    4.71045293083925
C         1.26978416059147   -1.45366170860994    5.48832975308937
C         0.81988240497276   -1.83874327026918    6.87627410238777
O         0.02352368293366   -0.77300484629015    7.35879299058927
C         2.49044352168376   -0.70713603150695    5.10548592942211
C         2.46927263082456    0.14859109380001    3.99692303504904
C         2.14559209388459    0.67236116077732    2.84760394049489
C         2.23609631080993    0.91210744769709    1.34936016869816
N         3.20338470158131    1.91089360341669    0.97679614784469
H         2.83722488519357    0.66161142319593   -1.14223010045159
H         2.60428753485234   -0.91315935023918   -1.67307089928402
H         4.10848852848830   -0.34981264571812   -1.14998994067102
H         2.73668479976670   -2.60230062851246    0.40105580139619
H         1.11419502394113   -3.33656102791460    1.91142684163884
H         0.63804607773992   -1.72748595981641    2.35721694829493
H         2.93876498470710   -2.82965509037390    5.35733461621577
H         0.44152778821728   -1.35961775640741    4.79979622772220
H         1.75277800786949   -2.03864027205658    7.41715174393266
H         0.37061158755637   -2.81604388354812    6.66099143472540
H         0.34740354945113    0.08091423549161    7.02967743546073
H         3.21456162818356   -0.34767482626662    5.83023178979219
H         1.31298242336022    1.29187363175186    0.90795273364839
H         4.10294115068120    1.63121595460807    1.36800397488364
H         2.89743524446923    2.81629606471974    1.32893319902796
