29
 energy: -42.049397194771 gnorm: 0.245016760029 xtb: 6.4.1 (79825abcba525fcdf90b791dcacef51065a7a4e7)
C         1.45884634762394   -0.65549973127101   -0.59591956013802
C         2.17788889899886   -0.71076789484941    0.74045464252590
C         2.19635871462004   -1.92344355160788    1.44534209288646
C         3.03827217158008   -2.46232909122294    2.69263089660802
O         3.48274649447737   -1.59650861923807    3.74240388555310
C         2.58438534027118   -1.37389836751641    4.94188984324439
C         1.06106490984804   -1.22571908799385    4.83496309971264
C         0.19972278564724   -1.86785427829327    5.89460504314535
O        -0.01546651325563   -0.99556814694433    6.98804939213210
C         1.91583017944013   -0.03506801306684    5.04851781809755
C         2.13743147747669    0.77030396284049    3.92428579357383
C         2.15990924209032    1.05268608610743    2.65157465230896
C         2.79389557001267    0.75471893390741    1.30261927899841
N         4.21279616571322    0.51972589830638    1.36198205629154
H         0.63191434287814    0.05125246874244   -0.71511034542927
H         1.13619532234000   -1.67467342175272   -0.76654483654080
H         2.19860085685663   -0.43174030378675   -1.38324838757777
H         1.87738357863948   -2.76733987714678    0.81927238702422
H         3.92546677897511   -2.96506288911586    2.29270741284026
H         2.41582946312069   -3.25575177928969    3.12870709747038
H         3.11941551786517   -1.83966185705465    5.76232888781153
H         0.72076423438239   -1.34236221924784    3.81539400789709
H         0.65679136096986   -2.79521061181267    6.26052878338106
H        -0.73352054863832   -2.13270191265238    5.38253083893320
H        -0.37704233872205   -0.16439158010887    6.64048435896250
H         1.93219509544420    0.38954706952023    6.04764250971199
H         2.55522193804934    1.57178263563818    0.61950586565369
H         4.47592484318655   -0.04192929078507    2.17177937920041
H         4.58456300105694    1.44959195560940    1.54771768935207
