29
 energy: -42.042263360255 gnorm: 0.246586765948 xtb: 6.4.1 (79825abcba525fcdf90b791dcacef51065a7a4e7)
C         0.97622664322347    0.07103329154261    0.01329032912279
C         1.89678908969440   -0.52879556170741    1.06149970505127
C         1.63219754239960   -1.66433844106263    1.84145059286054
C         2.74090020812707   -2.32341302521414    2.78556092803879
O         3.36489696934707   -1.47829827365635    3.75799858345863
C         2.54493661164338   -1.08416866247224    4.96948580818673
C         1.04849689586988   -0.79364153198342    4.79582480103043
C         0.17255823681400   -1.43467432959808    5.84410771951409
O         0.23289074632530   -2.84587873448637    5.75651644334947
C         2.01744661301933    0.31950570663264    4.92199670466814
C         2.31815474065985    1.06695956689582    3.77634583919780
C         2.97082078902606    0.97795911680008    2.65111490356613
C         3.27535601318253    0.41932938326843    1.27068210406651
N         4.43520757361700   -0.43301923027661    1.25422663199916
H         0.52276639355537    1.01186627595016    0.33998399904323
H         0.16510481937582   -0.63810593275605   -0.09223041820084
H         1.47507782963634    0.27178697722192   -0.95005651897165
H         0.67057699612515   -2.18101645451744    1.72229028134338
H         3.54216285265051   -2.68007644950574    2.12938739353010
H         2.21152390823251   -3.20785590093981    3.16587456850347
H         2.89492556949303   -1.42051037244685    5.93938012856557
H         0.73091777926773   -1.05752485758787    3.79660495400744
H        -0.89475965336480   -1.18242797203532    5.84166541254768
H         0.57462951341696   -1.10090469024559    6.80859925079832
H         1.17166455449671   -2.99516793938474    5.55951521999160
H         2.04172121303687    0.99840298741053    5.76894713457982
H         3.26763600274560    1.08371440526361    0.40480966184368
H         4.55071847121986   -0.80380928110905    2.19743229637091
H         5.28372796222675    0.10219201714784    1.07838221576775
