29
 energy: -41.989816876004 gnorm: 0.302048296119 xtb: 6.4.1 (79825abcba525fcdf90b791dcacef51065a7a4e7)
C         3.60399317105582   -0.21188834038255   -0.51259180150092
C         2.82652199740739   -0.58683141666656    0.73677965323718
C         2.63072031837864   -1.89780938111603    1.19589639291478
C         1.43344600785236   -2.17045635915618    2.21919649426205
O         1.87150459670925   -3.04754695170487    3.26228930572685
C         2.19846500722066   -2.21614724212305    4.48590938407642
C         1.19094639471203   -1.33543582887033    5.23634208382359
C         0.95679114376614   -1.72227189979641    6.67600108474844
O         0.76609279798457   -0.63062879473037    7.55620535063273
C         2.54293109454496   -0.82122727026647    4.91758475672006
C         2.42884091514124    0.07987685332676    3.85145926968412
C         1.94710749485681    0.39301040811874    2.68102393374049
C         2.04513629174740    0.82467736990790    1.22690644770563
N         2.77006134268441    2.05555308470718    1.04955590828233
H         2.93583110745885   -0.31782834127135   -1.37274168921513
H         4.41502277274856   -0.90349755912436   -0.70190464912708
H         3.99242213098706    0.79181487548483   -0.26990991997957
H         2.79513806179110   -2.82378587900448    0.62897157045226
H         0.80903716924233   -2.89694924122544    1.68805053681305
H         0.75617807584427   -1.31738685262348    2.36306277834236
H         2.44427827675851   -3.02067880956285    5.17046610448946
H         0.29320843930175   -1.11889693277733    4.67410656232674
H         1.76520048775393   -2.25800583637740    7.18811935035697
H         0.03080610557989   -2.31029164061293    6.68558635322907
H         0.68144748529165    0.20546733105504    7.07023060370549
H         3.37549825534251   -0.75386578861579    5.61120589916732
H         0.96771154448097    0.97637461736242    1.14119767963698
H         3.64382528961785    1.85064453915865    1.53433834279142
H         2.33522603884108    2.88273032848532    1.45459325960525
