29
 energy: -42.019105232476 gnorm: 0.273089333087 xtb: 6.4.1 (79825abcba525fcdf90b791dcacef51065a7a4e7)
C         3.34423088353648   -0.45061837071627   -0.65108649904818
C         2.39617124637046   -0.47566192650210    0.53488504936808
C         2.08176746844856   -1.75268785114359    1.02288582461749
C         1.41308377786016   -2.12452813409619    2.42628960434803
O         2.49129883682982   -2.70869421638165    3.16482066574778
C         2.38586575740916   -2.24391990633871    4.60295952184120
C         1.33410807061620   -1.43301837757686    5.37116525176356
C         0.96785817498517   -1.80595176774958    6.78674661358687
O         0.15225365064946   -0.79382141008122    7.34638174338287
C         2.63344245059125   -0.82104676040938    5.00908763740726
C         2.41349865820241    0.18061258482927    4.05518404152551
C         2.24905705565216    0.63218653221666    2.84312855706740
C         2.22075293183139    0.98194972098397    1.36418694963022
N         3.19148422418872    1.90201330219611    0.83203252649948
H         2.92935605400208    0.23766919361628   -1.39382518854607
H         3.33846693793355   -1.47019507345670   -1.01490211809829
H         4.28328230949692   -0.14415921587500   -0.15970385398824
H         2.09234731304768   -2.50968157913305    0.22745010404630
H         0.60333677567728   -2.85102483654512    2.29859203463300
H         1.09201480654731   -1.25093528260125    3.01012792458206
H         2.76907921196206   -3.10955217194722    5.13224333864119
H         0.43412957642244   -1.06064996376806    4.90179141560897
H         1.87714877763795   -1.91043891039043    7.39096070977960
H         0.36517390953380   -2.72248510136070    6.79350698893868
H        -0.61696163508264   -0.61912934788420    6.78053411148072
H         3.58078329156099   -0.79807894996459    5.53902512424940
H         1.25238875444465    1.36050947062810    1.03227511682754
H         4.09452306521458    1.82619103485571    1.30025981336448
H         2.74242620512998    2.78643691382027    1.06333527247065
