29
 energy: -42.040721669699 gnorm: 0.258574359904 xtb: 6.4.1 (79825abcba525fcdf90b791dcacef51065a7a4e7)
C         0.87773142146349    0.04570564026966    0.05659484744861
C         1.96473190492550   -0.52614858893016    0.94955926900575
C         1.83291573358029   -1.67811106883138    1.73911397931094
C         2.79128921258217   -2.34844268202683    2.82866482919032
O         3.41571381485567   -1.56188345559458    3.84878460140081
C         2.49609563506641   -1.23715016783250    5.00819191736768
C         1.04163923053900   -0.81459646911065    4.76344610436325
C         0.04790525232692   -1.36139990301930    5.75872882329729
O         0.20803856995275   -2.75116788358364    5.97253330444120
C         2.08400664719061    0.20534142795021    5.02243666740471
C         2.52637072999875    0.87009241364313    3.87176340889473
C         2.79964634112822    0.94518111288289    2.59908093528488
C         3.26573525326131    0.51218827430556    1.21861650913876
N         4.48969379296289   -0.22178843855099    1.03092464434288
H         0.66815320228114    1.07792676857723    0.35344189327782
H        -0.02862576317707   -0.54370986605605    0.11171013790536
H         1.20201302878453    0.11009047233614   -0.99596761176321
H         0.99557297029170   -2.36321441644585    1.55107163549917
H         3.53663946732885   -2.98636485626364    2.34152764866702
H         2.03969927193411   -3.09380214244290    3.12306044302927
H         2.78948833143489   -1.62916501425883    5.97595129077651
H         0.73379363176909   -0.82256176925664    3.72705865449462
H        -1.00938588648527   -1.19461040251456    5.51973438875667
H         0.19897308609573   -0.83454655460846    6.70894534405423
H         1.17329827519334   -2.84982016680656    6.00310196531425
H         2.02011835333177    0.87276245153690    5.87641759419800
H         3.32447361457669    1.34736431637617    0.51845016515797
H         4.61256574299170   -0.88417893658119    1.79682690267815
H         5.25405691447696    0.45062546551465    0.99981594753546
