29
 energy: -42.015235634884 gnorm: 0.261037874773 xtb: 6.4.1 (79825abcba525fcdf90b791dcacef51065a7a4e7)
C         2.87169200420293   -0.28341664496110   -0.78744363157365
C         2.53360881613800   -0.48662135105418    0.67897389896118
C         2.21029624943826   -1.82474363553769    0.94857998406055
C         1.54014283176883   -2.22236537141295    2.34419332508841
O         2.63207685620527   -2.46044716459254    3.23874516251814
C         2.45376356736408   -2.09636637749369    4.69854795966839
C         1.23194192532634   -1.49020450561149    5.40112551481995
C         0.99185234967852   -1.78508802282622    6.86143014056604
O        -0.22057252720734   -1.17548498207013    7.26295240392698
C         2.39334854849792   -0.63967601086187    5.05239179335660
C         2.41393937809260    0.15575757727450    3.89979028445417
C         2.03257287499726    0.83773942646663    2.85599964270882
C         2.39318396881753    1.03462587187714    1.39257931493626
N         3.63952877880704    1.55264314358200    0.89227212644520
H         1.85480475231745   -0.13129953258967   -1.16203989085097
H         3.26453390034097   -1.16316360435165   -1.28105502992381
H         3.55166001801163    0.55406224289015   -1.01866713942879
H         2.19895987015870   -2.72933920227041    0.32612695811563
H         1.03408330797283   -3.16773012713953    2.12062326159285
H         0.87516452128685   -1.35226048230999    2.43272734160291
H         3.21380866868762   -2.71484916971208    5.16343893396995
H         0.31221558448245   -1.33372502772888    4.85472918499441
H         1.87087438768525   -1.49981496890601    7.45197326436397
H         0.73405262416657   -2.84006428721685    7.01593502474394
H        -0.08410671951265   -0.23200598005302    7.44630308182226
H         2.96895164136363   -0.34173340941653    5.92344127457546
H         1.57872221753019    1.43878736475653    0.78883460661115
H         4.23733628030042    0.98543278674701    1.49340735102044
H         3.70716996750655    2.51085613510572    1.23081565815461
