29
 energy: -42.030153948692 gnorm: 0.240504180834 xtb: 6.4.1 (79825abcba525fcdf90b791dcacef51065a7a4e7)
C         1.08644871274049   -0.19941998666696   -0.22038383178784
C         1.87691722663243   -0.40816513472516    1.05928712516093
C         1.62077543707016   -1.58831599699304    1.77302729719008
C         2.64968150770856   -2.33281306247687    2.74360529186990
O         3.29166345214866   -1.69892200751778    3.85503105254340
C         2.53953058402302   -1.22230850673263    5.08080025280533
C         1.07941494644863   -0.78755134866659    4.89929394547227
C         0.13305036888447   -1.33713377864120    5.93825587362028
O         0.08329409351106   -2.74960870451357    6.01070598962460
C         2.13943144683241    0.22308420550127    5.12033799371684
C         2.50291286180813    0.89265459984843    3.94509957974222
C         3.18906916525955    0.75073905474793    2.84551411273242
C         3.17772421181889    0.62989162835129    1.33036699130445
N         4.37001936416852    0.04514379728232    0.77491507973108
H         1.11407718738657    0.86590200738317   -0.46907515235413
H         0.12748338405488   -0.70016438320735   -0.18073249507131
H         1.65994999675271   -0.77862478246870   -0.96389562051476
H         0.75400935277792   -2.20532757104922    1.50121357881136
H         3.42907126402244   -2.54737079928151    2.00447680877982
H         2.21386145762737   -3.30987794935029    2.99364933193517
H         2.86783949379762   -1.60832701374897    6.03971421487269
H         0.55384102738414   -0.94032829764041    3.96689787228308
H        -0.87700121322263   -0.91826442640337    5.85372225935149
H         0.42596579967497   -0.97200745227803    6.93031974199136
H         0.71590185277699   -3.18249214686158    5.41504471209496
H         2.28392358267193    0.66591373166419    6.10107234242213
H         3.03441836210019    1.56856038570977    0.79225312175231
H         4.80209854308058   -0.52789203997934    1.49976159241407
H         5.01821389963269    0.83025674258173    0.74661850976552
