29
 energy: -41.985736394292 gnorm: 0.291994886038 xtb: 6.4.1 (79825abcba525fcdf90b791dcacef51065a7a4e7)
C         3.69354043776306   -0.23138086454335   -0.44976768124764
C         2.78019351399373   -0.41702639273311    0.74910925364881
C         2.39041468818597   -1.69252561657776    1.18380903015269
C         1.33517740076314   -2.30606677154344    2.21579099331619
O         1.88670184050305   -3.03711762955506    3.31606881064672
C         2.30836429604180   -2.27911464150784    4.55824710224330
C         1.12464130884456   -1.56739024161749    5.22618712101623
C         0.84322051049032   -1.82137699331402    6.68679724235649
O         1.06001761888045   -0.59987613018241    7.36778530516144
C         2.40003827351297   -0.84864456190617    5.00113927371161
C         2.45813504478068   -0.00206816157818    3.88688528026095
C         2.34952137345715    0.78406526380074    2.85236323543097
C         2.00803021894027    0.94282579503974    1.37975243155848
N         2.72655943303735    1.99477448019624    0.70957014508453
H         3.17394244073331   -0.21493261563024   -1.41271577568413
H         4.24906639073960   -1.12478161352510   -0.19450762174104
H         4.12883909241463    0.77671367715614   -0.34275285021324
H         2.79190905620315   -2.57644552194983    0.67062553797916
H         0.86163517724158   -3.16078877521000    1.72081382923346
H         0.83228946149732   -1.51466288628952    2.78841700331023
H         2.57716725663502   -3.17732884883262    5.10347122473926
H         0.38555813631118   -1.14135021613622    4.56197536519457
H         1.53803543418155   -2.55565277460247    7.11208883324250
H        -0.18098562484880   -2.15725909599070    6.89049403336923
H         0.66496969749673    0.10895286398551    6.83497050547067
H         2.95187418676743   -0.69130038821776    5.92284196534632
H         1.03252612426911    0.63175638482148    1.00182425066264
H         3.39999704073788    2.37168949606340    1.37656475965115
H         2.09106795476848    2.78133447031606    0.83136157705183
