29
 energy: -41.980892474304 gnorm: 0.277555216941 xtb: 6.4.1 (79825abcba525fcdf90b791dcacef51065a7a4e7)
C         3.12030980078225   -0.18134566310142   -0.82423310623986
C         2.57380328079673   -0.53816761284136    0.54689106370863
C         2.28778056223256   -1.82750643337032    1.01973999633765
C         1.57416737662088   -2.27930828792368    2.37678699381290
O         2.59289019756657   -2.37792541710833    3.37763879006571
C         2.55218161986755   -2.12420328834796    4.87073708197250
C         1.27512675129557   -1.44043017240496    5.37618815098689
C         0.89438673481659   -1.94158754958383    6.74767172622546
O        -0.16761656291052   -1.12021217062068    7.19522235420233
C         2.51899303869523   -0.65841052528465    5.18878165185299
C         2.68631273734661    0.11868960948311    4.03563449799528
C         2.36911465240770    0.43049444410235    2.80999115191612
C         2.17890086489034    0.87930871187725    1.37027304716300
N         3.02686673298460    1.97192388518071    0.97131124358499
H         2.45847926278886    0.39187684211895   -1.48067651926727
H         3.15386791029409   -1.18089753335187   -1.23860201502308
H         3.81710108550240    0.67161132235169   -0.88856027154874
H         2.32095413243266   -2.72686488111236    0.39051561703399
H         1.07186773508514   -3.23882548530271    2.54054337213280
H         0.86773056703302   -1.43930063450648    2.42629578144504
H         2.97710440072130   -2.81789621482062    5.58805421561039
H         0.56351014962125   -1.12204909636654    4.62707760782639
H         1.71498881138971   -1.79601562838260    7.46056911369920
H         0.32470474828673   -2.84884987623555    6.51178003853502
H         0.15646215469713   -0.21413245464483    7.32322839969081
H         3.12155836578572   -0.58669116462074    6.08910784179718
H         1.12294366225049    1.04256396949041    1.14777758390630
H         4.01208720644148    1.81047981587994    1.18045566655121
H         2.82834547610529    2.30716944179979    0.03026984183031
