29
 energy: -42.049304305070 gnorm: 0.256360690349 xtb: 6.4.1 (79825abcba525fcdf90b791dcacef51065a7a4e7)
C         0.97578351412196    0.01802158269661   -0.09170836231871
C         1.97889952507390   -0.44935214468785    0.94814395225303
C         1.85907678109801   -1.70570324084343    1.56052792622017
C         2.73779115727098   -2.39406858339587    2.70462558523753
O         3.39235131575428   -1.64758642708078    3.73590694208136
C         2.56713169785656   -1.34895987373347    4.97090062330296
C         1.08199022158189   -0.98525075692507    4.84454381953077
C         0.19601838126794   -1.23101434281389    6.04109847795532
O        -0.20670786972023   -2.58747795715003    6.06616056031178
C         2.10718706631864    0.07886519398453    4.94705200302417
C         2.47348476148047    0.84212528063281    3.83130611914069
C         2.85044724440629    1.00563660616063    2.59388870317497
C         3.26546138816079    0.61452852514805    1.18491693455863
N         4.54816893543760   -0.03739672079811    1.22589722760115
H         0.58031557477311    0.96230062844048    0.29489718478159
H         0.13312775671567   -0.65859629071742   -0.15535746584076
H         1.35211294184569    0.05874198488542   -1.12800451142738
H         0.97787937662211   -2.25367653129573    1.20124276176477
H         3.56944251334389   -2.91519129104396    2.21822916309485
H         2.04978143844570   -3.14785851537678    3.11151660930580
H         3.00307426388760   -1.69039231961403    5.90347292017663
H         0.59229014167453   -1.07666715855646    3.88497714938129
H        -0.77865503690605   -0.73981641971439    5.93368357300711
H         0.65616156207186   -0.86961064943648    6.96897939760826
H         0.53161599674676   -3.21299569475090    5.98871094165258
H         2.09570012761384    0.59933706581965    5.89983372370005
H         3.24139230296945    1.39476560974855    0.42212411018752
H         4.64835004048510   -0.84399470041953    1.84219942853015
H         5.30926149757871    0.59677908266690    1.46236784513280
