29
 energy: -42.049304326984 gnorm: 0.242221141152 xtb: 6.4.1 (79825abcba525fcdf90b791dcacef51065a7a4e7)
C         0.92814106850687   -0.08953534160342   -0.03955088748079
C         2.01685116214471   -0.56106901244367    0.90825663330380
C         1.87253341525727   -1.75347281919283    1.63291880114679
C         2.77086751501919   -2.49728264990105    2.72593664733443
O         3.41999826271617   -1.63764590765852    3.66874089208234
C         2.64813947872348   -1.28758632788608    4.92455406381012
C         1.16768355859889   -0.89086312547919    4.85558321179789
C         0.27286485944599   -1.26674942028076    6.01104746633618
O        -0.42527386003607   -2.47496625481527    5.77519893811734
C         2.21409531591837    0.14597255952413    5.01009493586812
C         2.44042028882934    0.97522246141130    3.90431459790679
C         2.69393857969901    0.87310449106384    2.62942671488380
C         3.20348697994901    0.59428888392818    1.22478232194636
N         4.53129997373574    0.03939782530059    1.25692503106643
H         0.67284292152104    0.87892741725331    0.40138493242962
H         0.09789221996672   -0.78422976249425   -0.03528570764638
H         1.22656690688213   -0.01771882955315   -1.09925655689533
H         0.97316891144307   -2.30458275382216    1.32748345028928
H         3.61781882179167   -2.99695710605690    2.24345011506436
H         2.12260994763490   -3.26038542708845    3.17821223780135
H         3.08449681917841   -1.62254182969107    5.85927867186251
H         0.67002139820711   -0.78873065192982    3.90120774332962
H        -0.53084620178451   -0.55679449558938    6.24086087647380
H         0.83526082452280   -1.27572739427893    6.95282109934468
H         0.16664755889601   -3.21141363145027    5.55233730989227
H         2.32611802585038    0.57332328616734    6.00188024693389
H         3.14873126239265    1.44282133448133    0.54053336563931
H         4.67292336593357   -0.71734107324347    1.92606926656828
H         5.29269931955853    0.69471539176062    1.42482116101155
