29
 energy: -41.980584160555 gnorm: 0.292392945004 xtb: 6.4.1 (79825abcba525fcdf90b791dcacef51065a7a4e7)
C         3.03552989770554   -0.30177722280114   -0.80016115284879
C         2.56854772959499   -0.55612052967731    0.62223468012759
C         2.18749566587745   -1.81499821037837    1.10989851158075
C         1.67564249158457   -2.21448086953053    2.57050290012808
O         2.76476981314882   -2.66074617966648    3.38528802553042
C         2.66984472649489   -2.07934391868456    4.78111584314865
C         1.30969778255962   -1.64462153775913    5.34228631744395
C         0.81121814006107   -1.97599853619954    6.72749252609732
O        -0.13124210946278   -0.98174716012778    7.08251782031782
C         2.37756825636295   -0.64494058169747    5.10954204526119
C         2.68601621254104    0.03174450126008    3.92270340600203
C         2.30502004871576    0.70864148308279    2.87547326658897
C         2.26079599345554    0.92284804110658    1.37129127298974
N         3.03478693316997    2.07649391635993    0.99437777191049
H         2.65215990004932    0.71416225645606   -0.93586699562740
H         2.74557074137099   -0.91616542761904   -1.64300307267666
H         4.10285306544653   -0.56525163538978   -0.89286599363317
H         2.38076905153922   -2.53039287267165    0.29951261718946
H         1.04823658303103   -3.04542493404699    2.23037333060230
H         1.09152037335210   -1.32763505189403    2.85232338887462
H         3.09363638421131   -2.88422778727446    5.37177287256024
H         0.47641528787895   -1.59667834771948    4.65506506327292
H         1.63129046925750   -2.10014204787339    7.44503792355717
H         0.18259670545750   -2.82627273943900    7.01934219916274
H         0.37429003116502   -0.18402257698481    6.85787196981188
H         2.60185699592284   -0.07682316617633    6.00717956197179
H         1.19885543325665    1.16915243336327    1.42438108564938
H         4.00678376938626    2.02940580117907    0.68864943391278
H         2.49563872248539    2.62348520684823    0.32543911639635
