29
 energy: -42.049507089058 gnorm: 0.241412930224 xtb: 6.4.1 (79825abcba525fcdf90b791dcacef51065a7a4e7)
C         0.82736827610509   -0.00204702424463    0.23490490797655
C         1.96240687728034   -0.55971648322784    1.07553854851267
C         1.86678992893281   -1.74825942191255    1.81446532557234
C         2.80235514348842   -2.47653056052113    2.88651202684946
O         3.47608638745387   -1.67939081741597    3.86624683100379
C         2.63906028729181   -1.16080025372584    5.01769191541235
C         1.17423511938572   -0.76408624565431    4.79230159932454
C         0.12415967797382   -1.36463166900950    5.69439675483129
O        -0.23859133342795   -2.68078807994996    5.32163130848611
C         2.19147120347916    0.26904529896186    5.09520295997730
C         2.55880524025802    1.05657014289777    3.99679542804350
C         3.02105097983701    0.89597688156450    2.78825198247408
C         3.17473267598420    0.58901979975082    1.30752143006270
N         4.40529035599235   -0.04868490213458    0.91882479277129
H         0.45705743576603    0.93218747030921    0.66803011728931
H         0.01603721811616   -0.71157489682399    0.33611653202307
H         1.10640451498452    0.09028972840860   -0.82848796364829
H         1.07665873631474   -2.36331522978246    1.36361227440398
H         3.53562245852657   -2.99376292838553    2.25835276470050
H         2.13684978163250   -3.19691089902083    3.38176117732797
H         3.07618673834777   -1.60023904587451    5.90770716770468
H         0.90319957730548   -0.85085838644336    3.74925719278875
H        -0.77183085111634   -0.75479489090277    5.52676109101683
H         0.46501230667973   -1.30657048228095    6.73543266263412
H         0.50812791855093   -3.28866999085611    5.44525556460354
H         2.22273395254193    0.68115344690974    6.09919770379525
H         2.92119983601315    1.48205818334134    0.73358269205513
H         4.65813210138150   -0.83701065372919    1.51470944412221
H         5.19521475595624    0.59119613014010    0.98152165932479
