29
 energy: -42.050597058476 gnorm: 0.250560388120 xtb: 6.4.1 (79825abcba525fcdf90b791dcacef51065a7a4e7)
C         1.43457032036031   -0.88646814865554   -0.47170340885330
C         2.21222790236232   -0.81981320158121    0.83090112418323
C         2.23320335406515   -1.90684273456686    1.71730765099939
C         3.13861649037769   -2.33100374467318    2.96440817712512
O         3.55108495067541   -1.36611306908264    3.93810302090676
C         2.48428930021508   -1.15233511485304    4.99243714096018
C         0.99427892400726   -1.07265431050430    4.63548327967158
C        -0.05373219619756   -1.62979023767083    5.56734212081723
O         0.38138657328921   -1.93028810750175    6.88004270030507
C         1.74998069175689    0.15579466982091    4.97268886884275
C         2.07013496774262    0.92540632656358    3.84715446077475
C         2.28433569301222    0.96614294615574    2.56165950229799
C         2.81884112006715    0.71855189192817    1.16044352625598
N         4.25052183193301    0.57990674176348    1.21605327658983
H         0.60622327301282   -0.17278095756880   -0.42683227096672
H         0.92063430189912   -1.83128748237469   -0.59465818248341
H         2.12493275446632   -0.64704107710157   -1.29830251677883
H         1.69431809642418   -2.78368187260891    1.33439091171599
H         4.07583785002334   -2.66210073226062    2.50420687412159
H         2.54467666495933   -3.12641426385125    3.43523141711481
H         2.79667059177962   -1.70805074931366    5.86988289141586
H         0.73952570197587   -1.13021711666849    3.58633194199649
H        -0.36963851408086   -2.57929046821162    5.11850565852376
H        -0.96356478786234   -1.02137675883342    5.49423197916279
H         0.71887012553677   -1.22079869204941    7.45023795574584
H         1.55948984998299    0.63987755224311    5.92568038581732
H         2.49508462887888    1.43466323887589    0.40310052974118
H         4.57766212533301    0.03070521582406    2.01092550949940
H         4.67771577745590    1.50229537935896    1.27980060949421
