29
 energy: -42.047262995358 gnorm: 0.242939841880 xtb: 6.4.1 (79825abcba525fcdf90b791dcacef51065a7a4e7)
C         1.30074182695728    0.00813069278714   -0.55140064752685
C         2.03755879476922   -0.38322673641603    0.71742277793931
C         1.66469656350935   -1.56903700233731    1.36751313982991
C         2.36165604088704   -2.41740366564267    2.52917863311564
O         3.17155432202083   -1.82073042032102    3.54764400715785
C         2.49431256065326   -1.41506128301304    4.84076060983829
C         1.04652633250010   -0.91435904817051    4.92507151845160
C         0.19599552168169   -1.31305269519317    6.10605812470356
O         0.35623445984972   -2.60303382054565    6.66559570916248
C         2.17586107565942    0.03322383793527    5.06849185025044
C         2.55834140388909    0.73137971198871    3.91613958955014
C         2.59664275158005    0.95655553152757    2.63244664639302
C         3.22726206710500    0.67138662739377    1.27915378415793
N         4.52470910546333    0.08710873979673    1.49658219940460
H         0.74886418617054    0.92978997306028   -0.34284154984318
H         0.58712550841771   -0.71487028817631   -0.92550359092104
H         2.00462041838716    0.14090380547088   -1.39051799768181
H         0.92037282069188   -2.20263229423078    0.86710471059098
H         3.08683163824123   -3.07998660480856    2.04451531343795
H         1.55808189732087   -3.03676424599470    2.95081591702716
H         2.83500563398364   -2.03387500966799    5.66374955247163
H         0.44511463840899   -0.94488159742102    4.02712745983643
H        -0.79693930162125   -1.26440004452450    5.64290047509680
H         0.22378076408241   -0.54777466998266    6.89147834736383
H         1.08184030933017   -2.59806124243135    7.31047122710569
H         2.34520836300663    0.32144419418187    6.10148089831003
H         3.27822722597662    1.49342884254196    0.56301742078216
H         4.45596002349320   -0.58739115801272    2.25867694816431
H         5.20356902457086    0.81601664880231    1.70918901633226
