29
 energy: -42.044565003079 gnorm: 0.261693569359 xtb: 6.4.1 (79825abcba525fcdf90b791dcacef51065a7a4e7)
C         1.16011791640987   -0.11172362619074   -0.38512865259558
C         2.10231939727878   -0.50449338296394    0.73913157391261
C         1.77225278738478   -1.67956803884593    1.43053976525194
C         2.40657442673720   -2.39854393780817    2.70946703632837
O         3.18299171132387   -1.55472800326531    3.56642486182649
C         2.53409689442078   -1.12532651872780    4.86639583564198
C         1.02718670838268   -0.85545171274607    4.96781002531320
C         0.23311635412099   -1.38949017130909    6.13457654855255
O         0.30952688387511   -2.79101532766617    6.31540445482483
C         1.99338408859954    0.26620851356317    5.01492922468540
C         2.20586676823483    0.89583436757212    3.78202566871629
C         2.72764391135280    1.03375686904560    2.59511178661141
C         3.28119273654713    0.58655530287433    1.25198180580162
N         4.53238296729495   -0.07994987542389    1.50161838815317
H         0.72124450156138    0.88338437331387   -0.26400123513471
H         0.43701794106290   -0.87567076339989   -0.64094670822394
H         1.89071388940631   -0.04301148854673   -1.20896107754964
H         1.05970361399522   -2.41208439422518    1.02859090324906
H         3.04794499152320   -3.19217728355214    2.31124065950336
H         1.54966403962596   -2.73409941750653    3.30965371360942
H         3.12695073048424   -1.51664400223122    5.68597382908228
H         0.54384499129468   -0.88496219512806    4.00114503144845
H        -0.84470899577067   -1.25900188821260    5.97944127037243
H         0.64989276703311   -0.82799676104604    6.97975697706601
H         1.22964486325652   -3.09735497974540    6.35935827823030
H         2.28528801836220    0.84223399899605    5.88774231337678
H         3.41217965068897    1.33157447492049    0.46522200231911
H         4.41004026792390   -0.84938805609553    2.15999677944344
H         5.22055416951194    0.61050906560614    1.79665404178086
