29
 energy: -42.040546678284 gnorm: 0.245495367268 xtb: 6.4.1 (79825abcba525fcdf90b791dcacef51065a7a4e7)
C         1.00354515386506    0.03770065895270    0.00338809728929
C         1.93704879360711   -0.54773371074652    1.04828537475409
C         1.62645295495335   -1.65621873609593    1.84989680140556
C         2.65447965555875   -2.40219020646370    2.82027451218248
O         3.41055959465290   -1.53081337808544    3.66778347733811
C         2.64424509573874   -1.00316332677026    4.86349327285264
C         1.12117075619333   -0.82518955410481    4.81383553398369
C         0.33593455493364   -1.45666828282219    5.93710192488160
O         0.08228735963938   -2.81326150680066    5.62384797274780
C         2.01018768409290    0.35582914738410    4.90723467909377
C         2.16728167720028    1.09517445012561    3.72811696528898
C         2.80860024337178    1.04111921582772    2.59417374858295
C         3.29449716323919    0.42189629428532    1.29383888168384
N         4.49230778818745   -0.36672192284760    1.41775658243962
H         0.43811099728351    0.90675575528039    0.35345824828902
H         0.25893138132427   -0.73104362176680   -0.15944384446236
H         1.50713247169989    0.34130287889714   -0.93010919974170
H         0.63369742232535   -2.06877141409569    1.62605273759146
H         3.37778470700073   -2.87720061756983    2.14871718570634
H         2.10718146883647   -3.09808044239221    3.47090375266132
H         2.98358901713881   -1.36704334262147    5.82721006716495
H         0.54847675644662   -1.00229661538667    3.91406564279703
H        -0.65755350551439   -1.00237894040823    6.03407784913934
H         0.95421975744313   -1.35930133625337    6.83796289311258
H         0.93682377619588   -3.23275968601293    5.43363282718423
H         2.06368089919798    1.03883245255252    5.74952961546829
H         3.27978297142462    1.03243887645491    0.38928187005766
H         4.61786958248749   -0.77773178466378    2.34283500278760
H         5.34976079560679    0.14078280711027    1.20663463366492
