29
 energy: -42.008929739682 gnorm: 0.296427587786 xtb: 6.4.1 (79825abcba525fcdf90b791dcacef51065a7a4e7)
C         2.80619872780528   -0.32715427421059   -0.95103413192658
C         2.42188596051985   -0.45076546554346    0.51286365705065
C         2.25838107511747   -1.74344193906472    1.03252065127959
C         1.65557957313566   -2.16171826545669    2.45259828895055
O         2.70629607409147   -2.55071802760839    3.34360890557302
C         2.57143557019531   -2.07292552871650    4.77500730398259
C         1.30490042801271   -1.51480962000131    5.43704307952039
C         0.84693126664078   -1.93441841719315    6.81228172986783
O        -0.14561837282694   -1.04299605571037    7.28453325822733
C         2.45554043132031   -0.62602100179177    5.15426744795299
C         2.59494855118263    0.05154654859819    3.93644309354069
C         2.34360299794386    0.58987992474398    2.77581339333523
C         2.36100900449289    1.02815509130802    1.32047305344099
N         3.39759500173429    1.99333841539319    1.06369454359390
H         1.88376993041767    0.16980038621111   -1.26676001882546
H         3.01158059036651   -1.36154756060408   -1.19553464376983
H         3.76984599014343    0.19913954223638   -1.05869318103248
H         2.54301664977983   -2.57700451845521    0.37675740115344
H         1.20706163246886   -3.09742790296362    2.10178001457458
H         0.92188932923721   -1.41869143953024    2.79425117518256
H         3.03907542906583   -2.87471360356265    5.33604370446779
H         0.44905156869892   -1.55900361155747    4.77787631860262
H         1.54144433338951   -1.86405292552689    7.65815522604179
H         0.28165065218976   -2.85762764915452    6.98962307723127
H        -0.52561821908541   -0.44465825901045    6.62121960130782
H         2.91934781107989   -0.14276136484201    6.00876066250762
H         1.32221330492515    1.32950968497098    1.17455856246323
H         4.23092010629210    1.67890978922715    1.56085534662629
H         3.30978394072977    2.17615569523894    0.06558320292925
