29
 energy: -41.988369699065 gnorm: 0.281809464133 xtb: 6.4.1 (79825abcba525fcdf90b791dcacef51065a7a4e7)
C         3.11214189681990   -0.36022773796640   -0.81545257102118
C         2.73007289866765   -0.61848980583058    0.63137041505995
C         2.20965081743429   -1.86122837943966    1.02194870422919
C         1.39882649628155   -2.19818297003012    2.35760238856423
O         2.57197127687099   -2.26550540976889    3.17517492906934
C         2.41543494302492   -2.02364244965211    4.66257982613814
C         1.17752593147815   -1.36770672910865    5.28805977688357
C         0.89007777121991   -1.94453646953077    6.65251200485642
O         0.55323992320127   -0.81165556270749    7.43092783377655
C         2.42197123235900   -0.58756959757778    5.09669305234682
C         2.22915488003239    0.32972795693376    4.05601258014271
C         2.01566813619515    0.47058742633019    2.77748976617077
C         2.34686428044284    0.85988715741974    1.34600154569869
N         3.42403583792632    1.72593560244797    0.94389946107551
H         2.29502004780186    0.19297100542671   -1.28853257539280
H         3.37751601961293   -1.29550181824431   -1.29165699170428
H         4.04922891446089    0.20905215237250   -0.93784548697803
H         2.32028723448924   -2.79084626482573    0.44798041809550
H         0.60791206860678   -2.94901013197380    2.25509735508787
H         0.85775713460316   -1.32684509861519    2.75146937022417
H         2.95401062781509   -2.81453889934127    5.17319923378347
H         0.17916749565760   -1.32560529254678    4.87521687079801
H         1.73422106252666   -2.48021254860350    7.10337215719997
H         0.10475002991392   -2.70649540056735    6.57514079502788
H        -0.41118813539257   -0.75730609524311    7.33439976131746
H         2.82203591824722   -0.46650336283803    6.09874450340349
H         1.30588781676745    1.09859737034994    1.12108473069929
H         4.07609711640375    1.34344046399361    1.62871952046959
H         3.30257173994592    2.71455347508149    1.15659729019708
