29
 energy: -42.025830995830 gnorm: 0.249428448626 xtb: 6.4.1 (79825abcba525fcdf90b791dcacef51065a7a4e7)
C         1.00598026619419   -0.17989606606003   -0.09513072828974
C         2.06546189472318   -0.45068396272185    0.95850362967071
C         1.92771935137038   -1.72620993747038    1.52582204759646
C         2.59568774327520   -2.50131955842374    2.75381574903494
O         3.27373361823898   -1.80168902347763    3.80262307728019
C         2.59262605741651   -1.27338897547962    5.04856286923940
C         1.10193462293704   -0.91376670411992    4.99950285180645
C         0.10426032713311   -1.34647862731932    6.04568400877028
O        -0.24952263770326   -2.70490549087970    6.22547335015707
C         2.12975442452402    0.15275045743173    4.99680551811593
C         2.43237683967788    0.69216002617385    3.74018880422294
C         3.18842527350764    0.99275073985605    2.72132930117705
C         3.23151676602024    0.73812939356847    1.22342586481603
N         4.56414149172162    0.45306503283399    0.75988057952783
H         0.97487109542409    0.88417439489427   -0.34872081127674
H         0.02957348514043   -0.43918764758726    0.29388000986537
H         1.26406469362117   -0.75526087160769   -1.00041491963750
H         1.24547422942822   -2.49273610100964    1.13486340843291
H         3.33560072529504   -3.18550884385737    2.32462100108287
H         1.71019328987906   -3.08007481582067    3.05056287229041
H         3.06500515712511   -1.84580823745796    5.83945296491320
H         0.73098186285414   -1.02011212520428    3.98954447313436
H        -0.79062684092061   -0.77939198036403    5.76215032950092
H         0.50887701046475   -0.93886053765940    6.98026425094605
H         0.46368271019196   -3.10733804798475    6.74679779566607
H         2.14602253434495    0.73213279377202    5.91488356129606
H         2.85747300722566    1.53949849408054    0.58381585061654
H         4.93054471391317   -0.36476927247307    1.24707733917334
H         5.23171432397013    1.20805398242233    0.90718091192188
