29
 energy: -42.042666030514 gnorm: 0.256608909931 xtb: 6.4.1 (79825abcba525fcdf90b791dcacef51065a7a4e7)
C         0.88106727931274   -0.44647233775011   -0.00422337868158
C         2.02841600816543   -0.62003952480318    0.97528573013787
C         2.13269669777220   -1.82362308846335    1.68823863389708
C         3.02190696654068   -2.44589761736149    2.86170561549831
O         3.64934219818992   -1.49062588277642    3.72368403603706
C         2.77697127871513   -1.27424300197531    4.94332417212840
C         1.25662251903082   -1.09197654278133    4.84733371675092
C         0.40678606076832   -1.47522260553723    6.03392097974880
O        -0.89366067823560   -1.85681568757849    5.62644695930381
C         2.14004895288019    0.08025944577706    5.04557549466621
C         2.41801699964452    0.85666228724921    3.91351489635766
C         2.63448262459307    1.00449777656342    2.63628122683694
C         3.06527335913152    0.68816580276018    1.21334161703345
N         4.41661444982503    0.21823737178065    1.05500941554189
H         0.27413136679127    0.36196111723245    0.41480621850554
H         0.38064018362932   -1.40389543999243   -0.07383232744686
H         1.27346625219834   -0.16022044186596   -0.99481643146355
H         1.28899469083957   -2.49528594936272    1.48110257267783
H         3.77481375635926   -3.09826074118845    2.40635074747000
H         2.37146994996292   -3.12464355021987    3.43034661382481
H         3.17399636369882   -1.61820272122075    5.89220556759430
H         0.80334660967747   -1.09954660868595    3.86579668024451
H         0.29427058262616   -0.68244928886321    6.78335568073981
H         0.73953488031446   -2.31882497187858    6.65110866696903
H        -0.81578472221864   -2.36839002595705    4.80509438783666
H         2.20900459339586    0.55168344003148    6.02118836266903
H         2.82242357405798    1.50609617026805    0.53274186504265
H         4.52306596164844   -0.32234502268876    1.91344037192632
H         5.02007470407301    1.01075930188928    1.26738620925838
