29
 energy: -42.026752656239 gnorm: 0.200227168293 xtb: 6.4.1 (79825abcba525fcdf90b791dcacef51065a7a4e7)
C         3.64511473556275   -0.28080806511599   -0.38628963974321
C         2.71588080516938   -0.49854506291596    0.72387565442459
C         2.49457899550680   -1.74103343417027    1.20593694653768
C         1.40493990288457   -2.15363755869146    2.13438196335454
O         1.95897577631573   -2.82652341399474    3.16883581392464
C         2.25726698237691   -2.33073630795986    4.48236701006859
C         1.22020896152465   -1.52484128167990    5.37391336944689
C         0.85164786746197   -1.80586943562218    6.83842918213848
O         0.78222615197739   -0.69755293492830    7.74609965886831
C         2.51065393856644   -0.90803945349045    4.94558470701888
C         2.47556269086115    0.11485287648899    3.82288530374058
C         2.04624956399249    0.60454583607808    2.74368895445202
C         2.01091833517857    0.81923757299104    1.21774856005227
N         2.73632097190724    2.15680103951447    1.02719991274334
H         3.26566636617029    0.15265094135990   -1.32568097546918
H         4.06042794520828   -1.26191187711255   -0.47209643030293
H         4.27959759374525    0.51568987787283    0.10217226857786
H         3.02125797346394   -2.57153413173950    0.86715536273298
H         0.91455741569116   -2.99910902282604    1.58080804015447
H         0.85926020978922   -1.25907164490646    2.41058747700604
H         2.87204316384993   -3.10283563920838    4.89796117332959
H         0.38358628846132   -1.19178326636060    4.75389946789611
H         1.33429933372374   -2.63626438735659    7.37514912353480
H        -0.21297056691388   -2.07212367202656    6.82301584813994
H         0.72245334116730    0.14772811631922    7.28491797923191
H         3.45507498634427   -0.94523851762244    5.53088985771725
H         0.95140781809570    0.75307112078001    0.78670286963252
H         3.50851464448044    1.99507664086435    0.35661441544315
H         2.04549233304942    2.61181007073285    0.42072647840467
