29
 energy: -42.021628441316 gnorm: 0.266617001321 xtb: 6.4.1 (79825abcba525fcdf90b791dcacef51065a7a4e7)
C         1.31143375769041   -0.06878808051021   -0.53469527556397
C         2.17061288625117   -0.61244619434096    0.59323195929115
C         1.82855818888883   -1.71678534335264    1.38772760728135
C         2.39739039112589   -2.43298828841510    2.69861604621898
O         3.18502595890720   -1.70002043210613    3.64286931262595
C         2.48695752244597   -1.24384037663835    4.90777035024674
C         0.97532460115498   -0.99803217342637    4.99964110159867
C         0.53802347239757   -1.15312903766200    6.43553851330636
O        -0.05685425737976   -2.33572429992179    6.93593740493375
C         1.90284786420921    0.12851626030386    4.74573384465431
C         2.11310594320156    0.82596235258550    3.54949431467579
C         2.71116663198912    0.90015615332093    2.39326880809584
C         3.36689332432018    0.46584553381742    1.09257653994878
N         4.65703234898681   -0.06212035048671    1.45148865460136
H         1.26513537544419    0.99742872505682   -0.29270387120161
H         0.36321330059997   -0.56712701256886   -0.69111763423351
H         1.95636297636180   -0.18486436653506   -1.42226741173553
H         0.93183475159244   -2.19752024282029    0.97462900189824
H         3.11695141000204   -3.10461103062819    2.21804434178800
H         1.63314392476657   -3.07347893917356    3.15993588973018
H         3.20323279976428   -1.65203228780429    5.61249870475883
H         0.29607918663049   -1.42569634449680    4.27530677946537
H        -0.05382110236382   -0.32145230299779    6.83658149044642
H         1.48837771183709   -1.21873357942646    6.97944131524623
H        -0.88755365064904   -2.58419613226994    6.49936750599491
H         1.92360917219352    0.78318217953613    5.61164223638206
H         3.47696921362932    1.16865363843287    0.26484094799343
H         4.70453188077626   -0.81700332714274    2.13585729796204
H         5.26610998085104    0.74191367551081    1.59260177158105
