29
 energy: -41.974444278072 gnorm: 0.488788209541 xtb: 6.4.1 (79825abcba525fcdf90b791dcacef51065a7a4e7)
C         3.50508535330290   -0.37028170992425   -0.44981057609882
C         2.64492607766080   -0.48564705003466    0.72976001160459
C         2.15428598786003   -1.71327806836665    1.05323726051715
C         1.47140553844238   -2.14632970507735    2.25204559137156
O         2.28901681849142   -2.67050551122176    3.30944934993802
C         2.34430995106741   -2.13019202771479    4.50044336704547
C         1.18442883383427   -1.89989409845132    5.39179291838167
C         1.04197366213315   -1.97301820349483    6.98285951240351
O         0.23971573169839   -0.94791976916958    7.57683740552560
C         2.16912856608670   -0.63087123751125    4.90348189911650
C         2.26968756584058    0.38396527409789    3.78522209088118
C         2.21563165754252    0.82103095850968    2.77132160257253
C         2.28950273012233    0.77561449159249    1.26136714817392
N         2.87162983214592    1.97844641392922    0.58450851389885
H         3.01888621083275    0.25710761582924   -1.20813078874133
H         3.71017993949395   -1.37521695856424   -0.71711829534075
H         4.52191368323247    0.11474561213194   -0.38934095142559
H         2.65071156144507   -2.42166655547858    0.35970647891561
H         1.18819497252343   -3.10008844834724    1.93321431057042
H         0.68658617405831   -1.58965304225008    2.76706826451881
H         3.24947760014213   -2.51503775981033    4.92046192771807
H         0.17269261771390   -2.04140014587703    4.94495444131936
H         2.05876127714575   -2.02045893300435    7.39326598272028
H         0.47514230713151   -2.88222538101974    7.19007255393232
H         0.55126256739983   -0.13053658616146    7.14987651042727
H         2.86422573777792   -0.10128905110940    5.54998338029687
H         1.29243504144557    1.10809130637118    0.98218449111789
H         3.86794884633985    2.01958417521673    0.81364990357410
H         2.55717869923615    2.80729997099747    1.12991810191033
