29
 energy: -42.041767462300 gnorm: 0.247059095964 xtb: 6.4.1 (79825abcba525fcdf90b791dcacef51065a7a4e7)
C         1.51499459401592    0.07194981852219   -0.61547811367150
C         2.06395691646538   -0.47341940531270    0.69111499204168
C         1.64528992926134   -1.53881338271116    1.50194378658849
C         2.36627646795360   -2.31976606054780    2.69577650308764
O         3.16551823996656   -1.69231634216187    3.70411441400619
C         2.37832367521058   -1.19633982053251    4.89981772442413
C         0.86460341709351   -0.95704721426397    4.97252279252095
C         0.37615558372168   -1.40090986013710    6.32953913545983
O         0.54164925816785   -2.77181475630184    6.63944512813298
C         1.80002103260855    0.18788906145548    4.88311093971448
C         1.98298655743072    0.91372632280466    3.69934050682228
C         2.70670043927673    0.96414037206851    2.61594983299224
C         3.24474028125423    0.59644513986525    1.24273574200250
N         4.47809512726599   -0.14341492781728    1.30162112365249
H         1.16822032314583    1.10970919923483   -0.59745786042057
H         0.73094377841430   -0.56257466786756   -1.00863797378588
H         2.44248149452670   -0.04159746256087   -1.20205015740639
H         0.84528277123552   -2.23037641945633    1.20597328666214
H         3.06290476118282   -2.98609791902694    2.17567535316145
H         1.59007446894449   -2.99612903578280    3.07939156322244
H         2.91037660885406   -1.50686340413795    5.79245862794351
H         0.18136144988762   -1.26541487528174    4.19340728170231
H        -0.70150133637284   -1.20121090399796    6.36925747571915
H         0.86977983282849   -0.79179997952874    7.09675986690947
H         1.46460178615763   -2.99105326866653    6.43332352074359
H         1.87299050959308    0.83769500203694    5.74985399070174
H         3.36218333979287    1.35879917203974    0.47057928134786
H         4.46522200181789   -0.86755127569531    2.01990086486688
H         5.30703886347286    0.41490291952845    1.49781656530501
