29
 energy: -42.045404698949 gnorm: 0.248579052152 xtb: 6.4.1 (79825abcba525fcdf90b791dcacef51065a7a4e7)
C         1.36546751399215   -0.56880285006372   -0.48664576225341
C         2.12299987241606   -0.65933758269575    0.82633594282793
C         2.45247253993763   -1.93537945197904    1.30691331290568
C         2.98455755937088   -2.49329189527746    2.70711490215087
O         3.48022993428961   -1.57116457610575    3.68344268971806
C         2.67449741103748   -1.35802683950875    4.94864703860152
C         1.14246410503127   -1.34036751433139    4.86828730002947
C         0.37253221442405   -1.85736042269383    6.05867047199879
O        -0.41754119442176   -0.86945975949540    6.69321468998998
C         1.89362593567086   -0.08780173308145    5.11468974391216
C         1.93729323329986    0.74196734786653    3.98721236913891
C         2.42198946236949    0.82232558784416    2.77946625377925
C         2.84653184031960    0.78129244007953    1.32053385301050
N         4.26786523419750    0.63537798181927    1.14576280852400
H         0.42102561306707   -0.06562480907417   -0.25781610716715
H         1.04468123546264   -1.54805664166533   -0.81844367588261
H         1.89080868058338   -0.08865194991480   -1.32965434438173
H         2.15735218593175   -2.85635642797595    0.78674525383728
H         3.82191184560569   -3.16107726930817    2.47756135975755
H         2.20169148527320   -3.10629490001885    3.17451726167761
H         3.14234939426507   -1.81142619752862    5.81574372562125
H         0.83650280003455   -1.45531307456385    3.83770179322118
H         1.07533996202676   -2.23079556908382    6.81326248056427
H        -0.17430179251156   -2.71533181629917    5.64859116158481
H        -0.98879218012974   -0.45847290641157    6.02451809721870
H         1.93285899992940    0.26995476127426    6.13903684028971
H         2.36315004732626    1.56970915686098    0.74092773572944
H         4.69242229011851   -0.03199159832649    1.78983897396929
H         4.65437811359034    1.56479588686480    1.30116339388915
