29
 energy: -42.017732378013 gnorm: 0.268392739487 xtb: 6.4.1 (79825abcba525fcdf90b791dcacef51065a7a4e7)
C         3.20380435137948   -0.31863756102633   -0.74494937019617
C         2.61613445468900   -0.54514094307926    0.63682958411020
C         2.26079389843805   -1.87110715210607    0.92551003691533
C         1.55180097734219   -2.22930408035064    2.31258222129139
O         2.54244311089056   -2.74978954935154    3.20530215883679
C         2.29563930252641   -2.29358232762187    4.62879698406613
C         1.26306254815375   -1.41551762924057    5.34760376183571
C         0.77689099929688   -1.72936361454433    6.74124174378282
O         0.28752024250662   -0.55985062542697    7.37018188887888
C         2.62373674028209   -0.89869106083468    5.07313095807184
C         2.50797543734491    0.07190084899813    4.07004599723882
C         2.54399591372793    0.41827927166192    2.81355759933527
C         2.12344058747103    0.86320033048933    1.42230559179153
N         2.95530139532400    1.96933098345440    1.02669575273410
H         2.63666544088936    0.60003016193973   -0.92362429117458
H         2.87787312454873   -1.11658442698746   -1.39991602205407
H         4.29521871731434   -0.20074470645446   -0.85498415885265
H         2.74552757108601   -2.59527422742185    0.25731490364599
H         0.74479604094963   -2.95633772746991    2.17130432033042
H         1.12709686030256   -1.36215779862956    2.83679656443475
H         2.63232029677483   -3.11290773749820    5.25462834906248
H         0.43691535046884   -0.83817887377017    4.95633389273467
H         1.58798625417468   -2.11279522561790    7.37203990699972
H        -0.03771606571574   -2.43465969292921    6.53562035457093
H        -0.23815219931387   -0.13058184243145    6.67607108336045
H         3.38540545552297   -0.74566265908572    5.83158927450009
H         1.08322172555764    1.10235097447527    1.19437179267037
H         3.93493890356816    1.68667067155029    1.05633451891939
H         2.72362280005081    2.88165554030892    1.41573061152246
