29
 energy: -42.050176195264 gnorm: 0.236165501279 xtb: 6.4.1 (79825abcba525fcdf90b791dcacef51065a7a4e7)
C         1.01568082946273   -0.36980478599007   -0.17448498879286
C         2.02454374873380   -0.59105040129050    0.93871703975492
C         1.85944272901953   -1.71340537466503    1.76385379609981
C         2.86698737073994   -2.48527247121659    2.73546083138662
O         3.49061473361214   -1.69664889429755    3.75447388846912
C         2.64456227706652   -1.30815024163125    4.94973063349609
C         1.17903480964311   -0.85709993431066    4.89797703641924
C         0.17925941892983   -1.16281128738184    5.98613081050060
O        -0.43949935886334   -2.41706911414443    5.76983250945064
C         2.25752533449492    0.12868473917966    5.14080629929333
C         2.65463903882519    0.87543440917537    4.02443073051983
C         2.61705400153295    0.87803020879383    2.72111986676401
C         3.05720916282548    0.69814972834675    1.27740586196878
N         4.41671479813487    0.24836752584055    1.13089659699442
H         0.20374724148959    0.33726608385650    0.02131156382920
H         0.48958912554262   -1.31011786902881   -0.27922516956904
H         1.53433981351877   -0.12003425711495   -1.11565406986818
H         0.95255312654614   -2.24109101348784    1.43986531217073
H         3.64674249845450   -2.80458741832782    2.03559352863941
H         2.36555190875023   -3.39305552083411    3.09824086593765
H         2.94705704599590   -1.90051376714526    5.80641930920048
H         0.72976433669397   -0.90259816443407    3.91562411433669
H        -0.55237011306713   -0.34726833424075    5.93704353856710
H         0.61568612182826   -1.11367566596508    6.99132969533349
H         0.22316371907826   -3.06559828305658    5.48229020387959
H         2.38981839474500    0.55432495344223    6.13082896928864
H         2.88413086861019    1.50626426070016    0.56452653505817
H         4.67773222014384   -0.44939369881265    1.82764916089370
H         5.06404029314338    1.02449835968770    1.25718920317184
