29
 energy: -42.047190212680 gnorm: 0.244564018692 xtb: 6.4.1 (79825abcba525fcdf90b791dcacef51065a7a4e7)
C         0.75523738656308   -0.38914502674992    0.23325784725500
C         1.95573857243887   -0.73490975382035    1.09651703397771
C         2.02510185761937   -1.93465796393082    1.82010716180569
C         3.16881700314323   -2.46953579821164    2.80029418626879
O         3.64680047444801   -1.43803913349879    3.67022080858805
C         2.85189183161573   -1.22526161234034    4.94231372874074
C         1.34829080484375   -0.92525674699714    4.88684257193417
C         0.35972363388912   -1.49635005006851    5.87359279685599
O        -0.87825101584453   -1.77967881609836    5.24913006725458
C         2.32569941460624    0.17551395162048    5.05072047038382
C         2.53071701368787    0.90064606569345    3.87013596854829
C         2.47809895529091    1.04424180596880    2.57528064405763
C         3.00950466212828    0.57454308162888    1.23088684607883
N         4.37610180178389    0.12763625957384    1.29952454845874
H         0.31000753857667    0.52222784899009    0.64397857995898
H        -0.00063059896795   -1.15574414752352    0.11958701909436
H         1.10754893792178   -0.19882966085716   -0.79477344139941
H         1.18803239573150   -2.64540121985047    1.81480020569754
H         4.06120692691745   -2.79549399581420    2.25514667542979
H         2.81546743923625   -3.33300256314593    3.38054082785999
H         3.15862617276265   -1.88758756361406    5.74453026335015
H         1.03814687914583   -0.97624665751907    3.85236589130082
H         0.06119018098740   -0.74577647564086    6.61542751931320
H         0.65911059675334   -2.39803776739973    6.42189391828283
H        -0.72375159578208   -2.49705372070570    4.61360179432137
H         2.24949879543907    0.72119328806768    5.98626488252310
H         2.74624426297814    1.14523873057286    0.33858500292999
H         4.45828253522747   -0.37981205262258    2.18055093401129
H         4.95513853964928    0.95780793376241    1.41306148469195
