29
 energy: -42.009407400508 gnorm: 0.238534267040 xtb: 6.4.1 (79825abcba525fcdf90b791dcacef51065a7a4e7)
C         3.69339037099948   -0.43221263761014   -0.55815547905574
C         2.68778421881020   -0.53536125537019    0.57502120382586
C         2.17369765651366   -1.81415919178363    0.83613525693786
C         1.36243329702357   -2.22711053798127    2.15000989133501
O         2.20274458173959   -2.63443107269632    3.23499507110023
C         2.37257305123025   -2.11476312643145    4.64796284119514
C         1.13585109092031   -1.55453972702070    5.36250081680905
C         0.90616968170266   -1.90377562680559    6.81245578463351
O         0.80511732880598   -0.73197680380068    7.59953014826501
C         2.27036553071482   -0.66538568551356    5.02167572605024
C         2.35989387197312    0.36312156363940    4.07521598292513
C         1.91426909985077    0.58741618166961    2.87057943897832
C         2.14036791930333    0.83653408469443    1.38827610113546
N         2.97316948661763    1.88924524793084    0.86840559231864
H         3.36786759644387    0.44965386334227   -1.11839476217189
H         3.45299211793934   -1.27289650651748   -1.19642735943490
H         4.76360523510663   -0.39547671112399   -0.29267042329293
H         2.13620888817277   -2.46505134834618   -0.04749555853152
H         0.71634597049720   -3.10491062794715    2.04123259356533
H         0.70666821003844   -1.34899442259644    2.22747708010192
H         3.01184399285138   -2.76403857838595    5.23625448680640
H         0.41029296370911   -1.48181542326747    4.56424783514450
H         1.86070932636492   -2.36677224546622    7.09046630974020
H         0.03124317207926   -2.51655554844701    7.06207905399261
H         0.25065343933252   -0.07059218828092    7.15508307991371
H         2.92571137367311   -0.44388745079520    5.85850079590643
H         1.16602028639908    1.00536632268086    0.92638379337166
H         3.84852287943856    1.65099888248970    1.33473172458365
H         2.76635133142215    2.83279812931755    1.19135047545416
