29
 energy: -42.043788568009 gnorm: 0.229347289560 xtb: 6.4.1 (79825abcba525fcdf90b791dcacef51065a7a4e7)
C         2.10512154941489   -0.15143980682868   -0.96370492464995
C         2.27702560344229   -0.47854449555667    0.50919163826500
C         1.85356986507897   -1.70815510127729    1.03505540419894
C         1.80387467075853   -2.30650213675453    2.51642519131258
O         2.81222047242698   -1.84207566128226    3.42017996576604
C         2.27963325402565   -1.54060117021930    4.80612310343682
C         0.95400892428828   -1.00837102307873    5.36589735544253
C         0.69614115138613   -1.35601677906024    6.81148904344863
O         0.06097900144449   -2.61630354724087    6.91663853458350
C         2.08579649324557   -0.08580944012184    5.11726774164515
C         2.21959560002089    0.79131331819714    4.03357866224688
C         2.64547544491918    0.67379165247853    2.80685386850125
C         2.97881895970958    0.81597362632724    1.33068653916700
N         4.36623345547250    0.78767113901345    0.94818873317078
H         1.31031432642805    0.57602088855078   -1.15502683028854
H         1.81528719772118   -1.04858421842406   -1.49573841428336
H         3.06037616452596    0.26569724391157   -1.32519766243770
H         1.45003374150256   -2.50444934160625    0.39556849758021
H         1.93661724398163   -3.39375970973077    2.50973861035913
H         0.82027302572307   -2.08522356520229    2.95309501088248
H         2.90500266402897   -2.18052535971129    5.41908568124225
H         0.10778343397868   -0.97008016994304    4.69405851436302
H        -0.04688182546187   -0.70931154623463    7.29366210327531
H         1.61545601662713   -1.33487993492340    7.40958670402420
H         0.65602385933038   -3.34057173391124    6.66415047122681
H         2.57938886897317    0.23507969203837    6.02952459859102
H         2.58820952259471    1.75755506796613    0.94074962777427
H         4.77374883358688   -0.08656075036245    1.28002419619980
H         4.86017782092146    1.42653796398248    1.56885557766986
