29
 energy: -42.046207527023 gnorm: 0.241369093610 xtb: 6.4.1 (79825abcba525fcdf90b791dcacef51065a7a4e7)
C         0.98781796180927   -0.25640827593904   -0.08142766392196
C         1.97578626045406   -0.67464952861480    0.99326562344639
C         1.98619165487877   -1.93822475682168    1.60241181053490
C         2.91933052389195   -2.49851911737290    2.77299598550588
O         3.57234461859521   -1.60148792328767    3.67750332777435
C         2.85851557195295   -1.15521636902103    4.93713192292157
C         1.32924544694240   -1.03321161237057    4.95567184954408
C         0.46992669466173   -1.68830845625917    6.00900372515206
O        -0.91701339316050   -1.71171038204991    5.72854041628359
C         2.17781674009499    0.17854961535619    5.02943612342677
C         2.31443205690572    1.01189641059359    3.91207408377162
C         2.51988165883698    1.10068968071745    2.62757226389847
C         3.02917785740078    0.60989418397122    1.28215754637419
N         4.37843670901778    0.11634309755325    1.37122190154769
H         0.58096064404190    0.71525713341381    0.21497596588484
H         0.10150417309204   -0.87790700059867   -0.07052427290707
H         1.39481821870454   -0.25150883266596   -1.10686341746456
H         1.35855933293192   -2.77580464441875    1.27013628614655
H         3.70522040144349   -3.04892631248185    2.24458009804188
H         2.27932199202510   -3.20166873298456    3.32352902716503
H         3.38809770137183   -1.60230297331637    5.77137968444536
H         1.04909201492528   -1.23377316071501    3.93086925625842
H         0.66541005976357   -1.21581906637742    6.97923137498267
H         0.83223434781600   -2.71721869016857    6.12469424260781
H        -1.01431635629482   -1.90027964383671    4.78124596514446
H         2.28228525655738    0.77373101657996    5.93146785290437
H         3.04325355878295    1.31009225365507    0.44506335873462
H         4.51416915307588   -0.49228378863560    2.17844861781927
H         5.07093066268309    0.86298836316165    1.38944714755576
