29
 energy: -41.983095651162 gnorm: 0.299515012324 xtb: 6.4.1 (79825abcba525fcdf90b791dcacef51065a7a4e7)
C         3.77300244377386   -0.15010106373713   -0.20708118144119
C         2.86342135467755   -0.40798077691853    0.98125086993100
C         2.41224915518034   -1.72818779922988    1.12715071642147
C         1.32997657947487   -2.33259349055440    2.13627166137851
O         2.10326855731508   -2.99066179065424    3.14532640135954
C         2.09751397977243   -2.46895833892017    4.56770717727478
C         1.22902140672049   -1.46918571916590    5.34234961854976
C         0.94813222042718   -1.65786757897600    6.81292410829236
O         0.56892752226128   -0.40202730510975    7.34384696440135
C         2.57458609068805   -1.07751923044780    4.86283704807040
C         2.46570149161275   -0.24559699312822    3.74137446098511
C         2.23032735983299    0.71574193158679    2.89257233094477
C         1.87429562708674    0.88367252659435    1.42442914961053
N         2.42777628759444    2.13559738108467    0.97904405043654
H         3.21547566144932    0.08127356644638   -1.11985241445662
H         4.41862994495417   -0.79772378921995   -0.78646155355656
H         4.32053423296968    0.71711730286411    0.19953035618031
H         2.79523488206832   -2.40387588442695    0.35085375835787
H         0.84451356762210   -3.15777025681779    1.60410316915431
H         0.57117979196399   -1.61105937837566    2.46903719677705
H         2.56375442532248   -3.20127977342585    5.21781352919205
H         0.44121330095840   -0.93111691959594    4.83365357701566
H         1.82153932021450   -2.15290577991469    7.25439761626303
H         0.16501586902986   -2.40599966601591    6.98709223363583
H         1.00694050975445    0.15921139535858    6.68388578537072
H         3.49741906418298   -0.89932711264204    5.40638357916326
H         0.93039446521133    0.42082066160671    1.13113598894088
H         3.27663881508579    2.58594254961351    1.32122323610096
H         2.45256338306664    1.98330047214860   -0.02770837235592
