29
 energy: -41.978333804150 gnorm: 0.284255003975 xtb: 6.4.1 (79825abcba525fcdf90b791dcacef51065a7a4e7)
C         3.54935844241181   -0.25945093534650   -0.64807520866558
C         2.78936793526709   -0.48817742694579    0.64655655000834
C         2.21362154876526   -1.71781302558480    0.99912156866710
C         1.36837582633041   -2.22582836552274    2.25706645522815
O         2.12016726633542   -2.90686860427638    3.26712569167847
C         2.34133661051545   -2.25544960197499    4.61698201054225
C         1.14757528595055   -1.61291478784726    5.33529842459467
C         0.97934903249291   -1.82461574185640    6.81987631656324
O         0.35637122978007   -0.69779688963420    7.40723311630327
C         2.31451584105392   -0.79067364010812    4.94026866532441
C         2.24368876984878    0.24706945255284    4.00234457284175
C         1.96367817448388    0.51887745774876    2.75825733769445
C         2.17967318281594    0.93582840221653    1.31260808909703
N         3.09200406873601    1.93101995159130    0.81333792313196
H         2.90988007920072    0.22257532644606   -1.39389003966204
H         3.96335409367151   -1.25040564739149   -0.78426639757380
H         4.20230969350764    0.58367659915861   -0.36526374808008
H         2.67431965685234   -2.44182668496320    0.31397129625434
H         0.82915034115670   -3.13669955902611    1.97538600437338
H         0.70782808009652   -1.46409493079791    2.69359341865792
H         3.08489373660608   -2.91968378177314    5.04386476778445
H         0.20646643721666   -1.35327241346426    4.87072194767087
H         1.89155909029047   -1.73374818516873    7.42188755404538
H         0.47457007427355   -2.72544134679544    7.19003683132103
H         0.97811036809725    0.03264786290915    7.55651112008577
H         3.02853667073085   -0.82868400595708    5.75730316424948
H         1.45396416616957    0.78112816525119    0.51222293970006
H         3.94159443197022    2.05144965555701    1.36484300780193
H         2.55616178361606    2.73569006640934    1.13386599042731
