29
 energy: -42.046040786930 gnorm: 0.234768111648 xtb: 6.4.1 (79825abcba525fcdf90b791dcacef51065a7a4e7)
C         0.65412185076272   -0.44829779198487    0.25882798081674
C         1.89497684629058   -0.62561612055928    1.11603849138365
C         2.00404779676002   -1.80647385854308    1.86535032913127
C         3.20598266294975   -2.36135990818287    2.76111776616118
O         3.77674323175868   -1.53446676757848    3.78077749030792
C         2.88339468720253   -1.20630919777342    4.95959708154111
C         1.36606905486915   -1.04315680764630    4.80148384972803
C         0.33049182578611   -1.46335624634175    5.81543707517703
O        -0.90812894621461   -1.79655352825944    5.21743354186045
C         2.22586106131895    0.14007150394791    5.03516685218863
C         2.47913378870561    0.99695385548424    3.95663341776765
C         2.56547859042998    1.06386840197697    2.65736224497122
C         3.04645215549149    0.59315999476581    1.29446029800133
N         4.35250103494967   -0.01175199500151    1.27595693296998
H         0.07319141986676    0.42126973991858    0.58115358975952
H        -0.06644819464307   -1.25030621287269    0.35625992075159
H         0.93140233385514   -0.39647003601347   -0.80776524780891
H         1.32707502057552   -2.64672535590428    1.66150061877912
H         4.04007282537942   -2.56168377950371    2.07997293375538
H         2.79671833690781   -3.23683306571519    3.28377099760201
H         3.32358215192014   -1.61209460743803    5.86396776160010
H         1.10623149449338   -1.09709605820072    3.75338734293541
H         0.05436835468091   -0.55484167076896    6.36421638675407
H         0.70208577756444   -2.27830001389508    6.44875529443246
H        -0.72934053659779   -2.46476618301464    4.53631712885735
H         2.07561962773282    0.47319769388872    6.05755149499587
H         2.89128351403760    1.31900367015896    0.49428795440676
H         4.59832934640167   -0.45332723817074    2.16198441707531
H         5.10118793361437    0.65391453598184    1.09233997359090
