29
 energy: -42.011205485369 gnorm: 0.248065914984 xtb: 6.4.1 (79825abcba525fcdf90b791dcacef51065a7a4e7)
C         1.75114892072926   -0.36597332737876   -0.68958468734377
C         2.11092163337340   -0.64405975029147    0.75927842074598
C         1.48492029082463   -1.62938519822347    1.53712530957847
C         1.96631906047655   -2.45175406313151    2.82044519351143
O         2.99441265142560   -1.93604166313387    3.67267177138909
C         2.40717391340487   -1.34875089021317    4.93980036296819
C         1.06209690228554   -0.61985094398947    5.05542161067526
C         0.09380586045385   -1.00817667348162    6.14569886546440
O         0.50239729569542   -2.20961176904158    6.77213068657225
C         2.33187696279817    0.11587519161308    5.25603299333212
C         2.99090623439720    0.66168941425670    4.14725167143252
C         3.06981925872826    0.48042328739616    2.85847166209878
C         3.11732711692260    0.57676489005187    1.34227082493601
N         4.36183088918992    0.29676114769282    0.67531293152547
H         1.13297297829031   -1.19410255860670   -1.04955987649595
H         2.65133975881121   -0.41961549277720   -1.28850926817929
H         1.23634519989343    0.60981167650467   -0.69311359606882
H         0.56260119277952   -2.07068181840360    1.13655796581977
H         2.25420395401805   -3.36665198459528    2.29140982783862
H         1.05724917919412   -2.68977134318867    3.38970494471638
H         2.56658481045558   -2.01620887634797    5.77968196864270
H         0.56264266362439   -0.61413668419170    4.09654512230881
H        -0.89376497678572   -1.05870734029267    5.67140767510267
H        -0.19476947365840   -0.22648232681303    6.85913112848669
H         0.70911393415254   -2.79167461512994    6.02322208793049
H         2.53654142875869    0.39777936011514    6.28436096800441
H         2.62965143472672    1.53029973542214    1.13216166087412
H         4.74734609266913   -0.49376158996129    1.19195283027236
H         4.93174826530367    1.11518436454506    0.46858409223917
