29
 energy: -42.048636543766 gnorm: 0.236086567130 xtb: 6.4.1 (79825abcba525fcdf90b791dcacef51065a7a4e7)
C         3.54606694650247   -0.43983124789564   -0.56592394161267
C         2.62300071587595   -0.58807101389385    0.63071571802831
C         2.11657552065800   -1.76293653316530    1.20605408111972
C         0.98020988809307   -1.96309457176622    2.31219835821811
O         1.41469322571216   -2.78421636874168    3.40133060723979
C         1.96513518977771   -2.22548635271977    4.69755940231012
C         1.47452590534405   -0.94583611419067    5.38726466711392
C         1.19964159718218   -1.01280641283431    6.86950705549699
O         0.17738229355643   -1.90958173290664    7.26141267181161
C         2.84519119135041   -1.01774884083326    4.83050214727635
C         2.98090258996868   -0.28301346439392    3.64586079167013
C         2.46355748000020    0.54031854951623    2.77723141175204
C         2.27004935287304    0.91157039967506    1.31602288697944
N         3.04237718023446    2.05076018202625    0.89438212407086
H         3.28799740047133    0.43888362355901   -1.16490803180661
H         3.59356256591576   -1.31447262678091   -1.20206724688522
H         4.56808165226918   -0.22921679122797   -0.20770726170204
H         2.34317682046382   -2.69112477508484    0.66477054995518
H         0.18306118162766   -2.53181015238614    1.82137164217107
H         0.56779054202902   -0.97899995991620    2.57408577934646
H         2.18314295206395   -3.03314451884866    5.38783037558749
H         0.80054623642862   -0.29833794920467    4.84373099989986
H         0.92242400637911   -0.01337467465341    7.22600143989761
H         2.09598805964358   -1.30500853678478    7.43029963146269
H         0.07380774619131   -2.45122534420325    6.46248368479813
H         3.60229173118899   -1.13965627219318    5.59910689952161
H         1.22779469405944    1.20646608877172    1.18206808653075
H         4.03958535404150    1.89362601912070    0.74826686220660
H         2.99830954900769    2.87730431542904    1.48788193864110
