29
 energy: -42.019663747044 gnorm: 0.250011059295 xtb: 6.4.1 (79825abcba525fcdf90b791dcacef51065a7a4e7)
C         3.35984279195409   -0.35397846179801   -0.80600798749119
C         2.69250340852692   -0.54052589518503    0.54522514271403
C         2.23681022180535   -1.78930247382078    0.99321005021073
C         1.32100713703636   -2.09658463721563    2.26672001697606
O         1.76384265434145   -2.93806632381665    3.33678128481838
C         2.21063970535058   -2.12909563942626    4.53732846073401
C         1.28139681111280   -1.39610036472971    5.51360768735416
C         1.17462083555083   -1.79546212381496    6.96488229466499
O         0.18600089533762   -1.05836856054829    7.65924082392490
C         2.45002803104792   -0.70026021807984    4.92710377663090
C         2.07676938415153    0.22118166390623    3.94056861289680
C         2.33645141008586    0.78695465841177    2.79492262133751
C         2.38519190993879    0.94378626649660    1.28381974841121
N         3.34717825466326    1.89705635727139    0.79608726527069
H         2.98881473810764    0.31586876115385   -1.58777811813211
H         3.53376212666251   -1.30497105900246   -1.29313920743483
H         4.38365335178889    0.00480813570853   -0.60531963967484
H         2.77653809525812   -2.63947967182132    0.55530369454332
H         0.40023326550791   -2.59810491036792    1.94978591076586
H         1.04155069564265   -1.11767840378803    2.67995557114343
H         2.75746759340982   -2.83236274305623    5.15596223058496
H         0.41335899540915   -0.95186412530650    5.04660040232872
H         2.12925525062238   -1.55214095728622    7.44682584072412
H         1.07724235647945   -2.87078399476828    7.15855128144636
H        -0.71011589630312   -1.31469479206698    7.38782863867127
H         3.41938520292854   -0.61006418591745    5.40775674825974
H         1.36151801614056    1.03272292016443    0.91587388098694
H         4.25282410533319    1.95638116614286    1.26165263846226
H         2.98504519336047    2.84866663415238    0.82171374976461
