29
 energy: -42.050963406130 gnorm: 0.243523139266 xtb: 6.4.1 (79825abcba525fcdf90b791dcacef51065a7a4e7)
C         1.00295983205418   -0.16322235034666   -0.16077075507885
C         2.06370054150100   -0.56634992404003    0.84833284501989
C         2.00591176299111   -1.79026102582704    1.53133487409638
C         2.91580690699735   -2.50571764229734    2.63367688422926
O         3.44934922163103   -1.63727196890290    3.63884381372253
C         2.69067374565820   -1.44655368200611    4.93630775999785
C         1.20979336614164   -1.04619490457600    4.91177810608463
C         0.30042348519843   -1.28277673339910    6.09252548554232
O        -0.78776726908546   -2.17699755536025    5.95461222576158
C         2.26216297000022   -0.01356482119719    5.05345585007586
C         2.52860119932158    0.77082259993053    3.92413044861703
C         2.55746463949362    0.98752273024534    2.63873303882191
C         3.09419392659037    0.70816706474953    1.24435655242888
N         4.48479093504504    0.33966166045286    1.29403845507081
H         0.36451732063081    0.63917886390972    0.22141389556674
H         0.34945202754932   -1.00252274478940   -0.36185302130525
H         1.56082539903176    0.14716074308775   -1.06057075645861
H         1.20525677158548   -2.48703211098167    1.24967716922825
H         3.70355760466045   -3.12518589035035    2.19152050434142
H         2.19748648163586   -3.17769613969964    3.12314353833383
H         3.11953285937356   -2.04300490387715    5.73420433572087
H         0.85154713531474   -1.13629177558931    3.89567108213518
H        -0.15069721116567   -0.36232379349634    6.48247180756642
H         0.88749661196841   -1.67606090590399    6.93156069305094
H        -0.42033412553299   -3.04149257276835    5.70959331604017
H         2.29137226234771    0.51238472009923    6.00284504401808
H         2.89994190248666    1.49540480835953    0.51379169392568
H         4.65579880590301   -0.27186914687974    2.09231869181327
H         5.14748685232881    1.11002168309014    1.36287701661440
