29
 energy: -41.991065949968 gnorm: 0.304594620686 xtb: 6.4.1 (79825abcba525fcdf90b791dcacef51065a7a4e7)
C         3.85654059867867   -0.17105118798717   -0.48126478217650
C         2.78641054841443   -0.50657521727912    0.54256043114106
C         2.41871422312662   -1.74775627737227    1.08298498170714
C         1.41415971148465   -2.17995778612292    2.24875396420274
O         2.02193152241875   -3.00466219865530    3.24860493333386
C         2.21814023949660   -2.37089757391648    4.61066914880351
C         1.19448885166762   -1.50823785521784    5.36023705690520
C         0.83519698563014   -1.84633088374158    6.78631248365264
O         0.62125332490756   -0.58246507692065    7.38604695955735
C         2.49329883673239   -0.93335206637932    4.94014347833080
C         2.39793326015494   -0.12314068767789    3.80168333314464
C         2.28881493579966    0.62197682583799    2.73729064880263
C         1.93617192514818    0.75767054458412    1.26500204665179
N         2.41158700084153    2.08989712836358    0.99821109225362
H         3.41378991370274    0.35845558179757   -1.33045031447477
H         4.37779354330205   -1.08160988096996   -0.74792920636875
H         4.61245611255924    0.45500100553222    0.02256265371791
H         3.06055098866495   -2.61998430457664    0.90095954743273
H         0.71274439606346   -2.86056592899142    1.75420018248910
H         1.11020357037866   -1.18828572632071    2.61112686850694
H         2.66808862067866   -3.17746667934229    5.17926894473521
H         0.31434122815917   -1.31137144357825    4.76398628390521
H         1.66265945348856   -2.23867111984178    7.38978300332689
H        -0.14800594892495   -2.26457604481763    7.03468797239903
H         1.44203888085558   -0.08919472580233    7.22670944448382
H         3.05147321502644   -0.29347943664926    5.61676757218397
H         0.87275173442192    0.93266004720273    1.43739203298171
H         3.38484419342695    2.37930261398802    1.09557564847641
H         1.83300859029255    2.53155698617139    0.28579072358563
