29
 energy: -42.047944981864 gnorm: 0.247013985601 xtb: 6.4.1 (79825abcba525fcdf90b791dcacef51065a7a4e7)
C         0.77494170741425   -0.32616116457332    0.35191016870559
C         2.00219657516141   -0.73060415758808    1.14955929107479
C         2.04934538441664   -1.90116855477562    1.92114576746282
C         3.18587748305826   -2.46608913861321    2.89279629851100
O         3.64755656583371   -1.51955389210665    3.86240928813362
C         2.71951448931355   -1.20967756991908    5.01916725178889
C         1.22275759253313   -0.92959076942036    4.83164075330807
C         0.28095971695560   -1.49410234656471    5.86674079516425
O        -0.90591190471163   -1.99457352448890    5.28050324064110
C         2.17357014433505    0.18763176847353    5.03572153794826
C         2.51284562609552    0.92595438158813    3.89493215180579
C         2.69428007435697    0.92998624165470    2.60376833378279
C         3.09629271238318    0.55183823212495    1.18750793949794
N         4.44790835035453    0.23479027924317    0.80719181134745
H         0.41896722939579    0.65594678928646    0.67789758319813
H        -0.03295527295103   -1.04255824353640    0.42943032752481
H         1.15041754754986   -0.19609213027165   -0.67730877686430
H         1.15034565498600   -2.53176827781332    1.91755417902118
H         4.09884713335359   -2.71304891965301    2.34026429394231
H         2.70851464934426   -3.25414077804414    3.49130801364310
H         3.09467866240577   -1.77590700437650    5.86471384813393
H         0.78917022623426   -0.95601797637926    3.84157267813408
H        -0.10429362971634   -0.73375798698123    6.55685526418416
H         0.77586288672656   -2.26984966684089    6.46389600963135
H        -0.72605852080039   -2.65750507669887    4.59452399333017
H         2.22561534318156    0.64266373327465    6.02012645612355
H         2.75312472879679    1.38793495618528    0.57564182486087
H         4.84034950759564   -0.49457335345695    1.40257705008953
H         5.08668198835148    1.02791531782413    0.79045566048276
