29
 energy: -42.036261039799 gnorm: 0.231415503217 xtb: 6.4.1 (79825abcba525fcdf90b791dcacef51065a7a4e7)
C         1.37306035397708   -0.37421514559019   -0.47909750733581
C         2.16157236620277   -0.62969378073372    0.79328303434448
C         2.02291240869129   -1.86090339542572    1.45107175517507
C         2.32977490931891   -2.49778077068909    2.88465742227384
O         3.22258987894675   -1.74664205133113    3.71405352833412
C         2.75171886714777   -1.24375791207342    5.06340991810846
C         1.25237702788502   -0.92804768703232    5.14212879524025
C         0.45488726213046   -1.40887456234482    6.32952279181340
O        -0.56768871549559   -2.32224523649078    5.97894833124774
C         2.25049467472127    0.16578228627868    5.17642752740998
C         2.46575104888071    0.92673069217887    4.02046428549060
C         2.91712978875688    0.67343016752663    2.82374600214914
C         3.00455290755744    0.73705836858729    1.30759550254118
N         4.32270854004615    0.73581503529680    0.72924548076698
H         0.51213483794351    0.29492483922129   -0.38646601857816
H         0.96568502148958   -1.30762902753008   -0.84613366893348
H         2.02493342470608    0.17474527469462   -1.17973696852381
H         1.45417142663688   -2.67032647454242    0.97437751603514
H         2.80300360824054   -3.45731497038804    2.64983184062431
H         1.30880339518000   -2.70132570302389    3.23580350316778
H         3.14058446815004   -1.86802658794063    5.86052051431164
H         0.62003702006798   -1.06594165510664    4.27606718916093
H        -0.01671962839624   -0.53653281223197    6.79793334756870
H         1.08847007907116   -1.89158740592971    7.08375650720149
H        -0.24141800112374   -3.01853837291951    5.38639765404644
H         2.42142860945293    0.55630359787248    6.17497177653454
H         2.58456874572769    1.68486335361114    0.96630216226665
H         4.68784274265948   -0.19626129872076    0.92514259111930
H         4.84543318689593    1.49122702643008    1.16909870332538
