29
 energy: -41.919589879762 gnorm: 0.545524171084 xtb: 6.4.1 (79825abcba525fcdf90b791dcacef51065a7a4e7)
C         3.35450265570593   -0.41241804664784   -0.57144377610789
C         2.51714132305258   -0.32542514528600    0.64778609392745
C         2.18775153075079   -1.48280550396204    1.17929838225976
C         1.56731398487671   -2.04420288262579    2.37945981393249
O         2.41885255902567   -2.65398783126433    3.33536222969485
C         2.42903604474542   -2.11442385068877    4.60081606787211
C         1.18394163088223   -1.70501186578895    5.30020549180863
C         0.84047787391835   -2.00984716896201    6.82082758045948
O         0.17104599972923   -1.01613586634403    7.63892689612180
C         2.34163983333944   -0.62090233775532    4.86476704412862
C         2.43943870259997    0.35970680115223    3.98361066001844
C         2.21769149738285    0.56262436190471    2.58926664673723
C         2.20744095528878    0.91364388858954    1.35293725487972
N         3.04558551733173    1.94112342295257    0.85004653108671
H         3.06750210548392    0.38975852992442   -1.26002812799652
H         3.23027657422507   -1.31266157194829   -1.16553385151075
H         4.46832890956759   -0.42401215405439   -0.47233172263642
H         2.48802479394208   -2.26759070651766    0.47748403862997
H         1.23116604589024   -2.93170443432146    1.91175064298441
H         0.91535593923570   -1.48693024571143    2.98785895924503
H         2.99736501474398   -2.87353811087995    5.14628923987518
H         0.25013275266140   -1.41220067524572    4.88069380354491
H         1.79438512117261   -2.21443083777571    7.33659719773170
H         0.25692831765985   -2.94943137375316    6.72484058087522
H         0.21414025425762   -0.19728903963177    7.14175321603930
H         3.00150638339635   -0.27356845813156    5.64809064769785
H         1.24854521306898    1.34369610695707    1.26380642495158
H         3.97205574644349    1.89099234674614    1.17164117024157
H         2.88807309887320    1.71481183911652   -0.15230988478929
