29
 energy: -41.999176780230 gnorm: 0.289726634506 xtb: 6.4.1 (79825abcba525fcdf90b791dcacef51065a7a4e7)
C         3.04674654945505   -0.42918071194540   -0.84698228136679
C         2.50167409517852   -0.45814229158811    0.57006747685525
C         2.25237555107785   -1.74508781449130    1.06947829091619
C         1.62207381023396   -2.15793416661371    2.47916721069149
O         2.78478957132735   -2.53097298970955    3.22626823878608
C         2.64273478704566   -2.10595025576088    4.67352453280167
C         1.36017463375349   -1.64260467273243    5.37655076895855
C         0.80033757210016   -1.95040694959235    6.74363860481766
O        -0.17760393619084   -1.01733073712995    7.16293474536861
C         2.45472961184590   -0.68190242324963    5.10658810469111
C         2.37120725200128    0.36793470375228    4.18328162923690
C         2.51596212149446    0.57881921417091    2.90476205160106
C         2.16792101858559    0.92986548901736    1.46739028486715
N         3.06261053810108    1.97699458285066    1.04896957073716
H         2.61784833727738    0.36494337385479   -1.46579963403329
H         2.82719960450473   -1.35756248738056   -1.35868346197659
H         4.12151881302971   -0.20845463388434   -0.96246508333454
H         2.65753380582946   -2.57340997866633    0.47315740107637
H         1.12200063383331   -3.10449400328232    2.24733617559104
H         0.96395162345616   -1.31364035713658    2.72647287436989
H         3.04079276142442   -2.90160527420259    5.29384384340475
H         0.65675607460473   -1.51277361171882    4.56582424337657
H         1.62098370581957   -1.96708630702269    7.47100602239416
H         0.05373031418297   -2.75260934767023    6.79218016206348
H         0.11033143932340   -0.10626384785346    6.99134407107906
H         3.14456063272566   -0.47820524254915    5.91988789632632
H         1.12282863687313    1.14710483487312    1.69496690369938
H         4.01073268865639    1.83693172786723    0.69981095261549
H         2.47436584099598    2.55785509100303    0.45405072249517
