29
 energy: -42.048832022740 gnorm: 0.245531821258 xtb: 6.4.1 (79825abcba525fcdf90b791dcacef51065a7a4e7)
C         0.80850798683984    0.07402997118333    0.17270876049325
C         1.94852326162788   -0.50425964896557    0.99241545014894
C         1.79283182660127   -1.73641178522984    1.64460483218693
C         2.85777002833989   -2.42835599244051    2.61520520969463
O         3.43490059672588   -1.67109724561681    3.68417917640052
C         2.58430741743433   -1.27574537489679    4.87395343441603
C         1.11371249896343   -0.84707078659387    4.78744189073532
C         0.09898767098432   -1.26722076004934    5.82228314950212
O        -0.07091162062545   -2.67184269641145    5.79095388981481
C         2.17784760196765    0.16416109219978    4.98468751739493
C         2.52832534512418    0.99219162973286    3.91083483726036
C         2.74259770548772    1.00964900990337    2.62482505309403
C         3.23670593646965    0.54955000096699    1.26299920365028
N         4.48064148252218   -0.15730861947184    1.42111250763339
H         0.68809095786444    1.13282958270925    0.42163601508682
H        -0.10816916541558   -0.49629540202432    0.25248123508384
H         1.21940447347659    0.08497049126701   -0.85112524965421
H         0.88051783068559   -2.32102256035732    1.46632741684799
H         3.64837306538541   -2.66943845681369    1.89644209186001
H         2.43926592468522   -3.35499021567218    3.03152272143183
H         3.03914272029128   -1.79895427773370    5.70803402614977
H         0.73464782781001   -1.07819543296522    3.80163121582619
H        -0.84171290337354   -0.75334487806502    5.59030115481241
H         0.34775886058017   -1.04064601513813    6.86635410055919
H         0.80919764110872   -3.08030617165630    5.75999760043151
H         2.33750248334279    0.56806622753180    5.97976886531787
H         3.16868412316382    1.27701926254647    0.45221955794009
H         4.47179160835434   -0.77015610685204    2.23646800869774
H         5.26046734786611    0.49713341922919    1.39051140441081
