29
 energy: -42.044954667586 gnorm: 0.258960331586 xtb: 6.4.1 (79825abcba525fcdf90b791dcacef51065a7a4e7)
C         1.36314910937532   -0.54419575397094   -0.48506248102016
C         2.24066270229717   -0.77457643679552    0.73266795083291
C         2.17670631095364   -1.96989394428031    1.46404701606451
C         3.03998687551786   -2.45179609462894    2.72001765114752
O         3.49298736477370   -1.56959032425588    3.75235935036481
C         2.66017230682093   -1.44560780351866    5.01189181788404
C         1.13883649806853   -1.32245669532735    4.85611398116248
C         0.22617133901756   -1.84461564801256    5.93846384469409
O        -0.30095784987607   -0.77892734660343    6.70609223096562
C         1.96269783536895   -0.12270416024983    5.13129688087496
C         2.18150020253650    0.66605676152762    3.99480643923052
C         2.38049455026386    0.77787335582032    2.71108650979441
C         2.87567294143419    0.68963587435770    1.27671689023202
N         4.30853783611611    0.75926359226859    1.15807988660925
H         0.45319921147205    0.00738313646984   -0.22957555939277
H         0.95105862852086   -1.47639775018939   -0.84990841318382
H         2.00282148980168   -0.04473269049929   -1.23242289734472
H         1.65318651361830   -2.77116752551437    0.92575611713677
H         3.88521567643592   -3.03626356160723    2.34083380406269
H         2.39228253700996   -3.17177252806670    3.23889139648738
H         3.25263440945783   -1.93786467128107    5.77542635548089
H         0.84984077789340   -1.53490310716758    3.83617314775784
H         0.84086863885922   -2.48713674536538    6.58042607808582
H        -0.56895918801682   -2.49329353167655    5.55078895038210
H        -0.76708664298798   -0.22712003218602    6.05753564090359
H         1.86231576930143    0.38945404981846    6.08336481472740
H         2.27672504315530    1.42686482350425    0.73916966136846
H         4.66265032057303   -0.06697227030965    1.64016245647935
H         4.56991755550770    1.66030177591962    1.55452663459213
