29
 energy: -42.048286337955 gnorm: 0.244749135538 xtb: 6.4.1 (79825abcba525fcdf90b791dcacef51065a7a4e7)
C         0.84539094234880   -0.36334464065040   -0.04727254286989
C         1.89790741545431   -0.59699142031130    1.02211561039612
C         1.84989110059954   -1.78767738831545    1.76221767480433
C         2.89860511096656   -2.40592923590863    2.79803078904455
O         3.61865999972411   -1.61487523236371    3.74933537698206
C         2.87963887789849   -1.30851232780176    5.03594486457909
C         1.38402550893833   -0.98486850137000    4.92507854494356
C         0.30868616044810   -1.34602827554136    5.92021548340476
O        -0.78462325880241   -1.96035041224706    5.26440076224586
C         2.36790676672180    0.09576452505822    5.16609642435601
C         2.68053841244204    0.83766435260174    4.02002720659935
C         2.65730039809143    1.01046616307634    2.72788238031008
C         3.00874098705711    0.64167546839414    1.29579072030030
N         4.34623593952218    0.12486357069601    1.16915225628567
H         0.24102620222511    0.48881752079826    0.27843371753311
H         0.18318429607667   -1.21967479609270   -0.05788872276011
H         1.21260979560445   -0.12407770356674   -1.05974147820389
H         1.09129615752139   -2.56344888232711    1.59315636857060
H         3.74036364852550   -2.83643891145158    2.24495003894454
H         2.31048236761641   -3.17581739943754    3.31620140519440
H         3.14155401602056   -1.86190730633257    5.93119201643129
H         1.13129542294449   -0.97397393723514    3.87391726073633
H        -0.05610633230066   -0.46879130946168    6.46810544530354
H         0.70934980239000   -2.07023858209547    6.64014289856368
H        -0.29154363455967   -2.47811943850532    4.60775722778030
H         2.40716025787026    0.53283195609164    6.15919614489627
H         2.75159983118238    1.45315858013405    0.61272723459292
H         4.41464407495660   -0.58414182284361    1.89928692431854
H         5.03049367329916    0.83708727088816    1.41792512922423
