29
 energy: -42.038389333773 gnorm: 0.237971589761 xtb: 6.4.1 (79825abcba525fcdf90b791dcacef51065a7a4e7)
C         0.94708908027060   -0.16065472454648   -0.17560397234689
C         1.98481962457613   -0.52010372188933    0.87314981243794
C         1.91532027194187   -1.71320841076972    1.60762973199607
C         2.91794133900201   -2.43874812886436    2.61920688427327
O         3.40144810656299   -1.93878874599506    3.87040140545351
C         2.57087232337281   -1.52457004888524    5.06787422969788
C         1.16092695811677   -0.97358244116006    4.81814892788999
C         0.07027814970365   -1.08722589252821    5.85480653266437
O        -0.27143791754810   -2.37065689547263    6.34352436336508
C         2.29538512988372   -0.04992147453009    5.04995649902946
C         2.81152001714543    0.67635772538306    3.96933082919670
C         2.64387372897756    0.87221980986253    2.69121835717608
C         3.04378340882902    0.74244362420063    1.23052195713262
N         4.39008842144602    0.31189248332275    0.95828471261906
H         0.54882544026104    0.82415728376586    0.08717547500834
H         0.13989415515424   -0.87329130798033   -0.28748396965817
H         1.47061368268029   -0.11344611083784   -1.14559625882167
H         1.15711458700889   -2.42661838118760    1.25828781050399
H         3.86165276224687   -2.75187013600900    2.15968790591261
H         2.31052447700613   -3.32456806733081    2.85047453276339
H         2.72162074888936   -2.05682055822026    6.00077149604907
H         0.85071854092539   -0.85802565995368    3.78890231725957
H        -0.86630872826470   -0.76912847801915    5.38107589616472
H         0.26870950286262   -0.41072760120474    6.69521266184853
H         0.46201699267843   -2.70115639821292    6.88685389774339
H         2.39307419340835    0.30260688610088    6.07220717983984
H         2.75374051451159    1.64114427009446    0.68333423008676
H         4.72951302246072   -0.33696726354907    1.66838113048715
H         5.12987643863353    0.99938747664776    0.82628656733546
