29
 energy: -42.048662613716 gnorm: 0.250577128902 xtb: 6.4.1 (79825abcba525fcdf90b791dcacef51065a7a4e7)
C         0.92053148463893   -0.17454052480085   -0.02437697239617
C         1.88895571277649   -0.62039787755957    1.05698259038288
C         1.80927480012828   -1.84355909149557    1.73912429031021
C         2.80951510502747   -2.50958415389120    2.79310493297755
O         3.44819542312383   -1.52709080416802    3.61530936196720
C         2.71978691589678   -1.27164777791355    4.91897516606415
C         1.24509868205249   -0.85083844275728    4.87304381516994
C         0.33954255765627   -1.33136173318210    5.98036236753596
O        -0.56501745230251   -2.29621688810823    5.47673969573757
C         2.30673056342622    0.16226936147519    5.07411492033834
C         2.64463697976192    0.88951211021414    3.92582661349775
C         2.69087679126087    1.09236094190350    2.63867751903147
C         3.08686224289073    0.54573205932471    1.27676853645869
N         4.44179395892633    0.05974827918494    1.27467645778775
H         0.69269524996026    0.84650591093400    0.29667829169358
H         0.09395097416623   -0.85453900751798   -0.18654479802864
H         1.46016866969575   -0.02812211900130   -0.97545270909602
H         1.04444872752384   -2.57548823688063    1.44725063984414
H         3.65320365861198   -2.99550745695173    2.29124588678229
H         2.26423467876726   -3.27575754536041    3.36122862605256
H         2.96926423021658   -1.90368623342189    5.76431627044050
H         0.73031671416431   -0.74706030780690    3.92797189026919
H        -0.24385912326809   -0.56909869676177    6.51083307423774
H         0.89543256135112   -1.75106476802201    6.82779557437617
H        -0.07948532161882   -3.10479453863000    5.24684026516743
H         2.29488550987744    0.70361471110154    6.01518922762476
H         2.95228621607935    1.28745764988794    0.48750649516626
H         4.60722977372925   -0.57918600091744    2.05240323075212
H         5.10277611987115    0.83432362420743    1.29692073646813
