29
 energy: -42.006532420232 gnorm: 0.279554841252 xtb: 6.4.1 (79825abcba525fcdf90b791dcacef51065a7a4e7)
C         3.03514934653738   -0.21477997958259   -0.92000783139343
C         2.41477822728741   -0.56207243653757    0.42181942777022
C         2.24703564320952   -1.84787796486671    0.95694209647326
C         1.60107253569692   -2.21740505427496    2.37155393217768
O         2.58775664506280   -2.59740168026799    3.33658391558048
C         2.59668616224244   -2.02625325441043    4.73982459640504
C         1.33751674964225   -1.42302133486249    5.37582711319860
C         0.80392008850142   -1.79519321015382    6.73738930808424
O        -0.03219520873616   -0.82912202967073    7.34601707072139
C         2.54849809303405   -0.59288178492927    5.18019533166317
C         2.42814881243965    0.18773201078162    4.02356793968947
C         2.10173729641727    0.49043421807478    2.79806172999841
C         2.19863228649020    0.84627261953836    1.32347905100053
N         3.31802843360606    1.75038824070158    1.28408639251441
H         2.10005990523115    0.19335838117570   -1.31567495365228
H         3.40554114960548   -1.04576446025535   -1.50669887905127
H         3.93082256291251    0.41625670638020   -0.79057101944345
H         2.20675099482520   -2.69960157399896    0.26497861264745
H         1.23183358585796   -3.24425417677360    2.27648654010040
H         0.97257013455807   -1.36011383016166    2.64931899868562
H         3.23649546577113   -2.67712493009150    5.32576251638027
H         0.67433131814961   -1.37034465980645    4.52357038525958
H         1.71006019605436   -1.80197743095151    7.35518030870408
H         0.41753969349326   -2.82167830479853    6.75598812730974
H        -0.98034641257653   -1.02753977259450    7.28251344312970
H         3.28651228031565   -0.35972402355904    5.94163374486473
H         1.28650454168902    1.42041258687338    1.15146623929270
H         4.32120280853210    1.57883281485783    1.35245938030534
H         3.32677510482892    2.31738694928782    0.43803961502678
