29
 energy: -42.009312259727 gnorm: 0.269093715730 xtb: 6.4.1 (79825abcba525fcdf90b791dcacef51065a7a4e7)
C         3.19924520635307   -0.42521892590931   -0.97260614987799
C         2.63661103533153   -0.45593634184665    0.43752575878821
C         2.25655977919774   -1.65376851032259    1.06086261841448
C         1.44266144233606   -2.19675100455001    2.32485817004473
O         2.45588484318546   -2.56837549707906    3.26533645958237
C         2.62198614464707   -2.08445383943847    4.69138163561104
C         1.36706695568676   -1.46869274519692    5.32376732156582
C         0.98252523152839   -1.79670055952270    6.74560677810613
O        -0.08108071673033   -1.08738024306093    7.35258053563428
C         2.58747095519203   -0.65121208140530    5.13345515822173
C         2.48854067160047    0.18500220796276    4.01426471738041
C         2.09417383522126    0.41214576023120    2.79241399881286
C         2.16981162016789    0.88343186513286    1.34930207760495
N         2.93277241962956    2.10184729884983    1.27595892073390
H         2.57863949893200    0.04154975392823   -1.74364260261181
H         3.36047865206320   -1.49570264471194   -0.97235229938648
H         4.14887406087322    0.12276377125986   -0.84967649444540
H         2.68710189115416   -2.55613822868673    0.60673509844703
H         1.08333851914456   -3.17560806809423    1.98941783153818
H         0.71800279296404   -1.44493517392102    2.66655941813996
H         3.04715205538963   -2.97909335694771    5.13315900003897
H         0.45519064154335   -1.19122630663225    4.81344850130882
H         1.71157291416795   -1.79443021324229    7.56492719642386
H         0.64508279010232   -2.84035791248874    6.73079771877639
H         0.11745329326496   -0.14017076161935    7.42855067327248
H         2.98866809846642   -0.30837853718701    6.08230812130190
H         1.19438023122423    1.09200291228299    0.90631917436455
H         3.84102476163416    1.87208994916462    1.67938698047973
H         3.01987239052471    2.29354207732845    0.27945207349152
