29
 energy: -42.044386376463 gnorm: 0.254708608344 xtb: 6.4.1 (79825abcba525fcdf90b791dcacef51065a7a4e7)
C         1.40081180621920   -0.74847824772151   -0.53723258306913
C         2.11719234140171   -0.68684045903441    0.80029217441402
C         2.29688080000519   -1.86761706109432    1.53600161569727
C         3.19152965404966   -2.43889294015596    2.73107170780600
O         3.52674215573192   -1.62644385483436    3.86102080681818
C         2.55377003363800   -1.49903789279869    5.01534631925402
C         1.05303154976177   -1.30580084093170    4.76169410417293
C         0.13414583439283   -1.83683121292832    5.83442168202007
O        -0.12689807214105   -0.93801921886507    6.89593154901722
C         1.91220441943700   -0.14495413234991    5.09053534310647
C         2.18247596737850    0.66725299777431    3.98197708199026
C         2.29087616913258    0.94261361470136    2.71214848922309
C         2.76327487069993    0.79658374108347    1.27481821264923
N         4.19527010691254    0.74644059820683    1.13734131957285
H         0.60070382484886   -0.00527411947525   -0.46654666823514
H         1.13519335198202   -1.76090828773278   -0.81357282948854
H         2.05143444830513   -0.36254934473761   -1.34031461990985
H         1.71500605359623   -2.68316365780654    1.08636292445054
H         4.18034261910639   -2.57176140025796    2.27897744283517
H         2.67247428168516   -3.37118531329889    2.99285288220701
H         3.10550226890794   -1.85829737833626    5.87722632108138
H         0.83585704903460   -1.40422234998288    3.70714222585099
H         0.65373100540033   -2.67027261345290    6.32248760027236
H        -0.78743076561277   -2.15910731587950    5.33427962135199
H        -0.67994855130449   -0.17838793583535    6.65202892317017
H         1.87844836894638    0.27360446030566    6.09177710741406
H         2.27134818873192    1.55872577801267    0.66789993577440
H         4.56354903818917    0.06716203532394    1.80323636908748
H         4.73636975180193    1.60924271237403    1.14929426691312
