29
 energy: -42.046136962146 gnorm: 0.253390319154 xtb: 6.4.1 (79825abcba525fcdf90b791dcacef51065a7a4e7)
C         1.44594711702049   -0.53182511202886   -0.63754327500609
C         2.04749269056383   -0.68393256761727    0.74845059744449
C         2.03351461143672   -1.90920961296807    1.43130524850897
C         2.94171671868692   -2.43064286610465    2.63887369381716
O         3.53793197512070   -1.58093888349836    3.62465072287376
C         2.72678449567032   -1.28920531666599    4.87056643195867
C         1.20427188042152   -1.17415230640365    5.02094499400697
C         0.55379341163778   -1.79167083681837    6.23446776734032
O        -0.71145127428283   -1.22071773844610    6.51010978208958
C         2.05724160661038    0.03450932813491    5.09482992355724
C         2.19535632959260    0.79323669678115    3.92569097614172
C         2.25309970581854    0.94254655154864    2.63170069509964
C         2.87913076410553    0.68686373055442    1.27040899653349
N         4.29908205670097    0.48921853309038    1.39963466001057
H         0.66360551897304    0.20864570057453   -0.44475775701316
H         1.04275076241789   -1.48908073535565   -0.94254499902945
H         2.18137166724527   -0.18299588915777   -1.38229867247712
H         1.25819847253207   -2.64035228997898    1.16638131049574
H         3.78960906537058   -2.81433708057203    2.06124781681463
H         2.45287647733375   -3.30739470147921    3.08548132718075
H         3.29306522839151   -1.79082933674137    5.64774891105510
H         0.77377955955286   -1.37287567240225    4.04928832687197
H         1.11017514862498   -1.55944479065294    7.15060752801125
H         0.41767411046609   -2.87970319696865    6.20341149349597
H        -1.22234722201291   -1.28020389808194    5.68679954754404
H         2.06204398002521    0.58924583152455    6.02813603337698
H         2.64796809704780    1.46820882018297    0.54427829073358
H         4.42819897132794   -0.24596872420445    2.09482778068189
H         4.63580914379222    1.32251536511894    1.87879063478713
