29
 energy: -41.992888770142 gnorm: 0.272109020825 xtb: 6.4.1 (79825abcba525fcdf90b791dcacef51065a7a4e7)
C         3.19065132960386   -0.30299377646840   -0.90261482021551
C         2.53982788862463   -0.43994229597484    0.46253964810124
C         2.50871727614017   -1.74086982904148    0.98638064123935
C         1.63098840055690   -2.21795068816335    2.23415110308097
O         2.41456665359429   -2.60836699706463    3.36676138871650
C         2.43994299716119   -2.11169219081291    4.79786055950033
C         1.22810973099231   -1.40720310092438    5.42159994482389
C         0.96103561464579   -1.87815396748234    6.83013307457795
O        -0.01038861672595   -0.94945424013770    7.27359882119817
C         2.46118983252289   -0.64567253097155    5.11588125690757
C         2.47520102381018    0.28786016760932    4.07187492364564
C         2.10349929044491    0.46915799598630    2.83534451041690
C         2.05962836122712    0.89327416289562    1.37637071896123
N         2.97183328964567    1.97343493385330    1.10589069218668
H         2.80887990793403    0.67830777477882   -1.20064083130407
H         2.79137991289529   -1.03386008579756   -1.59424221551979
H         4.23701237656333   -0.48101375359067   -0.60156807102982
H         2.86061324100890   -2.57554587501757    0.36561131988225
H         1.40448707485917   -3.21118879007711    1.83169668624536
H         0.65143281892930   -1.76176174210680    2.43284547239386
H         3.14003254434432   -2.74692449110382    5.32952557461841
H         0.30781942941165   -1.53898219433924    4.86966573825767
H         1.78339499509196   -1.76481921003080    7.54684913732201
H         0.69490324425564   -2.94218843715866    6.84778486822401
H         0.42264553398825   -0.08490250442453    7.18743192443009
H         3.04860422882643   -0.69832674633859    6.02746654195482
H         1.07361439721679    0.88927144086645    0.90843635874675
H         3.80283912138279    1.94865640561966    1.69689009031515
H         3.05915263736216    2.40279215132847    0.18644145392633
