29
 energy: -42.045673704352 gnorm: 0.246776678633 xtb: 6.4.1 (79825abcba525fcdf90b791dcacef51065a7a4e7)
C         0.89413024393047   -0.28351722024125    0.09773688999174
C         1.90985812220698   -0.66951634293415    1.15852637015978
C         1.91892072478493   -1.91570683644616    1.80251148741086
C         2.99496893724950   -2.51802272113264    2.81950757871923
O         3.64005882377465   -1.63275546076423    3.74112941848364
C         2.81075253454855   -1.28623794083556    4.96078145568404
C         1.32345604345555   -0.91185887803900    4.91972688600841
C         0.28664725189551   -1.40288306699087    5.90003877896329
O        -0.90722585639491   -1.82111678847025    5.26556444619934
C         2.35057960715865    0.12745886386548    5.16203966655730
C         2.68368384818329    0.80622805108452    3.98308141954743
C         2.60775764747097    0.98366854737933    2.69358974592720
C         3.00328491126413    0.60879564917063    1.27463516620537
N         4.37022790038115    0.24266608147830    1.01111934159498
H         0.22364854953072    0.50450904500818    0.45409423774835
H         0.21385835829598   -1.10427903164198   -0.09070910041605
H         1.35052104426579   -0.05050127789272   -0.87930082997620
H         1.13164011971391   -2.64502915558796    1.56981505930747
H         3.86755780435439   -2.90978068495293    2.28573918396782
H         2.45006710369339   -3.29651694837316    3.37100160699975
H         3.15582133231202   -1.78979405877365    5.85725887840581
H         1.00425056104390   -0.81219444192270    3.89157023984294
H        -0.07995829920500   -0.60469252802544    6.55676848141307
H         0.71771005346754   -2.24137253216309    6.46077729164764
H        -0.61724604705626   -2.64205900149109    4.83619443752716
H         2.56262511463069    0.50695383586057    6.15694473497474
H         2.71936717065590    1.41878984445677    0.60046733969753
H         4.64410977615493   -0.50262627106757    1.65142628486560
H         4.97798581780684    0.98806978028625    1.34632499111538
