29
 energy: -42.017257960273 gnorm: 0.277522305933 xtb: 6.4.1 (79825abcba525fcdf90b791dcacef51065a7a4e7)
C         1.44532049028013   -0.32091400673021   -0.56878554114887
C         2.19777273194498   -0.57999195952393    0.72453074172112
C         1.80537886354599   -1.75979262262462    1.37405914700447
C         1.98121094983036   -2.40492280628708    2.82589776451361
O         2.99302525340596   -1.74045118683403    3.59005424854306
C         2.52805619705497   -1.29477633669685    4.96138656942812
C         1.12159779376747   -0.68179596950927    4.95634750178777
C         0.27757212274939   -1.03655692925853    6.15587000331599
O         0.50514113197441   -2.36254167282374    6.59494502706088
C         2.31433450995273    0.18255701914434    5.11175758281329
C         2.60557330530350    0.69082859674893    3.83956705300305
C         2.61082743024688    0.99321953604741    2.57127265548946
C         3.19441641478896    0.69429364370138    1.19997002804665
N         4.41432666453814   -0.04460707318164    1.39457034036010
H         0.38795412714612   -0.46398287560602   -0.32582601951047
H         1.75337292888972   -1.05628866288315   -1.30108294697084
H         1.69885479868157    0.67445438649685   -0.97146880890846
H         1.10003682839604   -2.43344312985448    0.86952269578077
H         2.41491207590200   -3.37665786505469    2.56622750534409
H         0.95998944466051   -2.46219134240019    3.22707589702454
H         2.57629483225355   -2.04609829882030    5.74209232133715
H         0.60488643530042   -0.57802602448156    4.01232817496405
H        -0.77734923704190   -0.88427748136292    5.89750295779019
H         0.68970431109624   -0.41006542421633    6.95647155010125
H         0.51107298901926   -3.06043341055747    5.92018214091221
H         2.79195242090505    0.56138281202590    6.01019405841297
H         3.06937755967245    1.52454783378970    0.50265704675957
H         4.22898028842095   -0.86043499233723    1.97812537911038
H         5.20410054994716    0.45956122025916    1.79385812146393
