29
 energy: -42.051833799959 gnorm: 0.247711010177 xtb: 6.4.1 (79825abcba525fcdf90b791dcacef51065a7a4e7)
C         1.40737713704384   -0.02015504302665   -0.55103542233203
C         2.07854145646490   -0.44029119344343    0.74472568129813
C         1.81484537826673   -1.68383455610297    1.33789849771600
C         2.31182374548703   -2.44623200798263    2.65194106111472
O         3.15773675233033   -1.81815722996319    3.62105362256130
C         2.44134931994037   -1.41449387055055    4.89353912082364
C         0.97875725919197   -0.95623514065812    4.96223708856082
C         0.17386727594736   -1.27328164767837    6.19865218514103
O         0.23236884637765   -2.60173078857936    6.68301833585293
C         2.07831947445086    0.02840820305556    5.08601143891981
C         2.57482168861006    0.72782015663012    3.97879103312469
C         2.73116730845967    1.00077045082196    2.71344803568840
C         3.15833387119432    0.73977334557074    1.27824323116261
N         4.51074241656939    0.26092625251786    1.16110581834628
H         0.85749373536571    0.89932081756961   -0.32806896096710
H         0.65175566290710   -0.69270004886661   -0.93658838079444
H         2.15680565229760    0.19131015528368   -1.33259224606069
H         1.12504270301064   -2.39060072812322    0.85777010759683
H         2.92530574957925   -3.29860430569248    2.34066043396476
H         1.40785882504418   -2.85259372234297    3.12610823936190
H         2.91003865780735   -2.03181369701066    5.65219551016332
H         0.42505746171880   -0.97131756637753    4.03373277691810
H        -0.89558584062012   -1.10978997599256    6.01881290390567
H         0.55461232358886   -0.63619785389140    7.00640514624458
H         1.07289139228167   -2.98418483557395    6.38361265409575
H         2.34140109432726    0.41217351550223    6.06699465990666
H         3.06254560607727    1.64597155699683    0.67755067320943
H         4.52377335964487   -0.63378051888093    1.65079443594658
H         5.18921839764658    0.89879739978856    1.57359815808551
