29
 energy: -42.017460772894 gnorm: 0.272122180088 xtb: 6.4.1 (79825abcba525fcdf90b791dcacef51065a7a4e7)
C         3.39576510904714   -0.41051230932459   -0.68191308893008
C         2.67923295070225   -0.50397296346451    0.65368398330463
C         2.05859847873797   -1.69593349615063    1.05596826950713
C         1.15646850704671   -2.05482820693750    2.32573255254446
O         2.02165135377190   -2.65437941543744    3.29589897863131
C         2.41096014794011   -2.11714876073267    4.65795489137263
C         1.25142531649960   -1.44753463173470    5.40694879527746
C         1.12241939990091   -1.81214179702076    6.86554667216189
O         0.15229487577813   -1.00791656691786    7.50966645907677
C         2.43557884170333   -0.65650634221699    4.99959840085187
C         2.75334682634310   -0.04233747705782    3.78162932743465
C         2.34382621253155    0.60561839007469    2.72688538726813
C         2.27353943988470    1.01437552304190    1.26456498290161
N         3.30066402065676    1.91445697388381    0.80970998952441
H         2.77728279726001    0.25653332816815   -1.29023159429279
H         3.28766826691793   -1.42085580326612   -1.05534685495735
H         4.44432232211258   -0.07606471067571   -0.60533454838853
H         2.56451537673292   -2.50336694972463    0.51010314433147
H         0.48137583903401   -2.88289633685773    2.08418050025422
H         0.58979541995100   -1.16460475444568    2.63151147139630
H         3.01695102203891   -2.87771210144199    5.13819593414662
H         0.35933171131315   -1.65141773218836    4.83116073881173
H         2.08115295860050   -1.71662548750038    7.38948202944596
H         0.76703638428880   -2.84016535261447    7.00759554742908
H        -0.63786719171113   -0.85300673751146    6.96741203293796
H         3.16103827154718   -0.40567505263177    5.76745783600305
H         1.23202005790095    1.14170679289803    0.96418811377841
H         3.98891099090176    1.92988420316915    1.56240053864679
H         2.89484527450929    2.84846558377214    0.82697990372341
