29
 energy: -42.038757093769 gnorm: 0.238445176764 xtb: 6.4.1 (79825abcba525fcdf90b791dcacef51065a7a4e7)
C         1.53081086464077   -0.33455981313475   -0.67920227857051
C         2.00684688066402   -0.57627595624803    0.74239393105336
C         1.72613165492497   -1.76083157311492    1.43939942459630
C         2.35333349830563   -2.40718132936985    2.75992775492862
O         3.20749832303850   -1.66975368585968    3.64073921011881
C         2.65651001649974   -1.35043131977165    5.01544628528310
C         1.21032143197685   -0.85080731322763    5.12862939050836
C         0.44990943978469   -1.31462749391763    6.34671523099000
O        -0.34394329272191   -2.44677873089018    6.04531594105551
C         2.34182486068652    0.09594590944451    5.25992286362763
C         2.67554632194205    0.82658636813433    4.11256804502039
C         2.50661653782167    0.82426384076308    2.81970454053388
C         2.84333730288668    0.76077060943845    1.33882935065393
N         4.20211562852872    0.40094805597304    1.02854918985920
H         0.73530253633859    0.36098370716946   -0.96364448337609
H         1.42490965555893   -1.31872354934341   -1.11753817147729
H         2.43941233909932    0.09634430377420   -1.13302680508944
H         1.15769122314840   -2.47621510433511    0.83032528830805
H         2.95288239890770   -3.23307692545407    2.36214400636848
H         1.54483434326433   -2.70886424636102    3.43995236440732
H         3.16973683977576   -1.94237941163393    5.76545206919726
H         0.68595353657229   -0.75409574991095    4.18808890827820
H        -0.27144377420911   -0.57321007478515    6.71106590832931
H         1.27894529571732   -1.49968304866290    7.04080555760214
H         0.32957312119418   -3.07697133999103    5.74261819215152
H         2.48859167491062    0.41684227921162    6.28671440623013
H         2.50643260594448    1.64629022231427    0.79702460734414
H         4.50035556526960   -0.29133122550515    1.71576625228295
H         4.89443611461808    1.14552019307063    1.08907905371588
