29
 energy: -42.031848896383 gnorm: 0.248000572377 xtb: 6.4.1 (79825abcba525fcdf90b791dcacef51065a7a4e7)
C         0.88980770775474   -0.14767737032606    0.05838752101426
C         2.02589464160121   -0.61956975066859    0.94866659448741
C         1.90099940779054   -1.77832455647554    1.72935743032802
C         2.80300840709743   -2.56585162966935    2.78818986398777
O         3.55783090467397   -1.75280464535606    3.69285745554858
C         2.73322517995587   -1.28343419961103    4.87399733788997
C         1.22915493162361   -0.99994339807081    4.76769010644382
C         0.39501938630715   -1.27482400292370    5.99477910814162
O        -0.28994706428756   -2.49290812356281    5.77139127958755
C         2.19759429377780    0.11775177425674    4.84992124738837
C         2.44190384893999    0.97199430780134    3.76723414384461
C         2.53591022268103    1.12486015770844    2.47578790475529
C         3.18072733909283    0.58060535670140    1.21150894574854
N         4.52889947896482    0.14864713359308    1.47202486233495
H        -0.02521305649087   -0.00531265148559    0.64147494512122
H         0.58369664339336   -0.91225090910901   -0.64421834329797
H         1.16981667380225    0.78273965139712   -0.46421255804215
H         0.92972288007680   -2.25705436486132    1.54684962241287
H         3.49235633534385   -3.15222501415805    2.17113231131959
H         2.06263919231213   -3.16752907301105    3.33312529022895
H         3.17926507502429   -1.60556363088346    5.80865993375149
H         0.66129031203978   -1.34753850018945    3.91584577582002
H        -0.20862095249792   -0.43481551231276    6.35920428901662
H         1.20768118675400   -1.43388784018935    6.71421421929047
H        -0.94833081105078   -2.32551245871861    5.07791990499192
H         2.18717636630765    0.72235610860043    5.75167565493585
H         3.01432943483530    1.16855847025202    0.30717217142487
H         4.54263002092150   -0.41475099359561    2.32223600002777
H         5.13137227687477    0.93561971922589    1.70667325296764
