29
 energy: -42.010484850587 gnorm: 0.270401772715 xtb: 6.4.1 (79825abcba525fcdf90b791dcacef51065a7a4e7)
C         3.23064877666879   -0.25877854221327   -0.76139012877489
C         2.49727519350151   -0.56866851068415    0.53170853796745
C         2.42414748651624   -1.83809286989977    1.12416430730731
C         1.51189770641828   -2.21937954455819    2.38009664853222
O         2.36461242928141   -2.80743095119631    3.36817511006597
C         2.36599313190871   -2.39345493893925    4.82556880345149
C         1.25979186395895   -1.47653222201515    5.36359062175037
C         0.82438295987558   -1.78517653589468    6.77506022545354
O         0.19564355282797   -0.63204886539429    7.30212136432036
C         2.57152806537302   -0.91412197411975    4.96745616569105
C         2.48405845697285   -0.13027349862405    3.81006289371785
C         2.21018483420420    0.66796436297369    2.81615732357381
C         2.21832555516747    0.89885920381096    1.31381751953000
N         2.96390616515236    2.04974645999247    0.87610452301040
H         3.18420781742423    0.78859322546429   -1.07504164575636
H         2.79982412152908   -0.89715501151519   -1.52217740563777
H         4.30443780770080   -0.40172230756649   -0.55225884235927
H         2.78107395287277   -2.70031411672140    0.54533147876738
H         0.90688247923869   -2.97365815136214    1.86549516540339
H         1.03413429274663   -1.38405350846168    2.91027536266083
H         2.62432115482764   -3.30813806946858    5.34800002211832
H         0.45428989029049   -1.11190680577969    4.74137998237023
H         1.64573470899476   -2.20810446683845    7.36608893102954
H         0.05375805094569   -2.54618125042761    6.94917651927837
H         0.76184491017979    0.13341374885129    7.11271170128537
H         3.10926942685410   -0.57719306579484    5.84843799547649
H         1.25664683832634    1.14538767008230    0.86038626400507
H         3.92292807360721    2.17988465463232    1.19829388106889
H         2.65260223969214    2.97298071438781    1.17290001495177
