29
 energy: -42.048744344561 gnorm: 0.238992905932 xtb: 6.4.1 (79825abcba525fcdf90b791dcacef51065a7a4e7)
C         1.39881121373161   -0.79430300701338   -0.48010435804585
C         2.31110166045412   -0.80109610751096    0.73383664562212
C         2.42228350489851   -1.97859065357026    1.48811437958089
C         3.03577144020260   -2.37741934387235    2.90921024396546
O         3.39974688238934   -1.38215255226390    3.87159883381380
C         2.38900527881371   -1.03382831512257    4.94511922412515
C         0.87892923694326   -1.03021297325331    4.67391211503648
C        -0.02080223600556   -1.62589810860051    5.72877284057800
O         0.63983807291263   -1.99909501275185    6.92338096589313
C         1.60185971972949    0.24257252330895    4.90033710990337
C         1.92639343541023    1.00478893551038    3.77103087776997
C         2.14075339571553    0.93460037897559    2.48683381858786
C         2.92726155934098    0.69499311929158    1.20839850078568
N         4.34724014267758    0.49931576689258    1.34029157756526
H         0.61362657513356   -0.03282822235966   -0.51420556609724
H         1.04668527749286   -1.81676262728026   -0.53025743052809
H         1.98926528309127   -0.60871516943994   -1.39340214347638
H         2.04549000802850   -2.87111281530397    0.97110347447991
H         4.04294771252979   -2.71904952505286    2.64714325263489
H         2.52698118508764   -3.25527529392664    3.33065815151267
H         2.63769952394437   -1.43312713044241    5.92237284496262
H         0.52835278410015   -1.22818029619632    3.67049979614427
H        -0.44749332722946   -2.55757533806979    5.33798656383890
H        -0.81494996166792   -0.93099829503691    6.02835762567938
H         0.83269526852798   -1.23370272697895    7.48851259743121
H         1.50857406681417    0.75998272111768    5.85028463433579
H         2.73433028417665    1.39892874957813    0.39694653517810
H         4.48753263209448   -0.25408242368533    2.01347367628888
H         4.76667607141751    1.32200072344966    1.76996837651779
