29
 energy: -42.048432078543 gnorm: 0.242151363638 xtb: 6.4.1 (79825abcba525fcdf90b791dcacef51065a7a4e7)
C         1.24840392568478   -0.67768865208842   -0.26553129927201
C         2.31639687504658   -0.79250813944298    0.80786532452299
C         2.38649174948978   -1.94845391326237    1.59948757288108
C         3.30392102648476   -2.34019007130097    2.84841172310228
O         3.51290970041128   -1.39031454329989    3.89878599966222
C         2.36768387880584   -1.14049241464094    4.85869282349818
C         0.85129964510246   -1.22655182488044    4.64173974218301
C        -0.02402629817161   -1.80225219857462    5.72777023792594
O         0.42347956217344   -1.62571060781518    7.05870287795810
C         1.51350557021635    0.09063590914929    4.78449633078511
C         1.73375141518954    0.88105344473047    3.64943665686382
C         2.49618928539054    0.84149144673078    2.59247779583463
C         3.00679829578911    0.70320336434643    1.16750114580436
N         4.43629915000944    0.53929914707119    1.20857785564832
H         0.59667693776769    0.12679102953318    0.08884989602661
H         0.68735047206401   -1.57586639720221   -0.49009185048587
H         1.74591562026822   -0.32269267399190   -1.18403642582224
H         1.92080918897279   -2.86300713609423    1.20884505146829
H         4.27212617280874   -2.59610249195216    2.40469789968124
H         2.80209064198448   -3.22927654041441    3.25437779115303
H         2.69898197973091   -1.41036305998819    5.85555009308036
H         0.51738830145152   -1.48421863265054    3.64622870017948
H        -0.10213097752004   -2.87761575268554    5.52703523095310
H        -1.02204007655790   -1.37947264322853    5.55885208547070
H         0.38767430420378   -0.69129569923317    7.31943218645180
H         1.35838069554498    0.65490998448953    5.69901635112319
H         2.52494325940312    1.42433223311741    0.50493717440963
H         4.67163770556486   -0.25939807688267    1.79778364614311
H         4.97187192809973    1.36575002005594    1.46838536551195
