29
 energy: -42.043369569209 gnorm: 0.254400693914 xtb: 6.4.1 (79825abcba525fcdf90b791dcacef51065a7a4e7)
C         1.44377147065369   -0.56963163313770   -0.51713349701081
C         2.14905718528546   -0.70094428266116    0.82126174294155
C         2.22801455872146   -1.92523796793790    1.50145318950235
C         3.09219584960885   -2.48688978896734    2.72320733134036
O         3.57123132836427   -1.67271832233609    3.79878888385518
C         2.63326115029953   -1.42181961263652    4.96181787513562
C         1.11342331123301   -1.26446711104171    4.82315028497184
C         0.23959207200115   -1.83501138318516    5.91309849009767
O        -0.15466803105714   -0.86427822013063    6.86443763722975
C         1.96945943515765   -0.08047798185085    5.06656592379193
C         2.15160821246066    0.73460015562397    3.94224468678165
C         2.17310261785832    0.92732088397431    2.65289008866606
C         2.79600510745766    0.78911387984112    1.27329050964932
N         4.22498816540931    0.62961189334623    1.20553283765739
H         0.53091667343480    0.03258364709564   -0.55656104537858
H         1.15824317795422   -1.56394960532100   -0.83609594727161
H         2.23423854500740   -0.20628449195898   -1.19561146816216
H         1.72605353919682   -2.73276607391918    0.95208726844159
H         3.91293458664363   -3.09916613391061    2.33423440315632
H         2.41046950864654   -3.21697866462288    3.18074024691690
H         3.08353214192317   -2.04873796737501    5.72375131200338
H         0.78395314488307   -1.47280331645760    3.81469763700607
H         0.74258667196599   -2.68723277724434    6.38587408847963
H        -0.66158575219344   -2.22087138845729    5.42086077730834
H        -0.65729780195930   -0.19362377035247    6.37456118633512
H         1.85916170548213    0.44312290150512    6.01128411984249
H         2.33463235687156    1.57229657701656    0.66916951229875
H         4.45193074719980   -0.20419314959549    1.74750255203741
H         4.57173133259366    1.51499643713905    1.57052951623558
