29
 energy: -42.048753076025 gnorm: 0.253086973192 xtb: 6.4.1 (79825abcba525fcdf90b791dcacef51065a7a4e7)
C         1.05727603347175   -0.25723740221300   -0.25514128710940
C         1.99373071777564   -0.62990478005844    0.88070395567230
C         1.86824828042863   -1.84471375063210    1.57083657373524
C         2.70934926506201   -2.51806028939702    2.75155618525651
O         3.34729598009420   -1.64562246165590    3.69022659097951
C         2.64437343152476   -1.26713090493480    4.97786724237221
C         1.18648489203044   -0.79573824608067    4.89883573777122
C         0.21642008402158   -1.19992375990869    5.98174708386532
O        -0.18350518970091   -2.55696841294731    5.94569559531614
C         2.27688024083438    0.17925612996064    5.13186713171496
C         2.60017782189596    0.80691419232537    3.92225867722551
C         2.61856897150130    1.06618679990807    2.64457398050131
C         3.06080126971845    0.61912291882135    1.26075026234215
N         4.44241311104826    0.22175675979235    1.33336869861743
H         0.39631500296868    0.58526273902905   -0.02965140960650
H         0.34930366227488   -1.05415180247271   -0.44391162673140
H         1.70978749734943   -0.01199586532683   -1.11028868749465
H         1.00276808427018   -2.39882084686751    1.18382393707152
H         3.49103384404009   -3.06614434892140    2.21455766368294
H         1.98421087734799   -3.13146650991679    3.30384601918264
H         2.79734483878955   -2.00529661638987    5.75762625729390
H         0.76773720508584   -0.83176311899359    3.90270131606872
H        -0.70547248758336   -0.63711777694951    5.79157565754532
H         0.57498184743243   -0.89702461391662    6.97320710474239
H         0.57517952984532   -3.15304964143167    5.83856168514774
H         2.48498509855405    0.71852571689370    6.05094084068801
H         2.99237929416692    1.30473207359577    0.41431026944029
H         4.61555959545337   -0.46905664318615    2.06361666450977
H         4.96597560384628    1.07207116198733    1.53388533651025
