29
 energy: -42.043002672274 gnorm: 0.255059562708 xtb: 6.4.1 (79825abcba525fcdf90b791dcacef51065a7a4e7)
C         1.33920618306829   -0.53569601561875   -0.57257318077462
C         2.02283985728315   -0.59007037842182    0.78229256742069
C         2.01327397417026   -1.81421386837586    1.46725309036171
C         2.83192719785157   -2.42785064780075    2.69534186257933
O         3.51704403073486   -1.54252431148665    3.58755153722984
C         2.80372689942632   -1.26201246883638    4.89440508333734
C         1.27565576434397   -1.16305067523780    4.98980506876646
C         0.63626214953359   -1.71208535341335    6.24153403389661
O        -0.73728181148918   -1.38210294229099    6.32696652726338
C         2.11009371672046    0.05928771553253    5.04881196574750
C         2.07898002752877    0.80410225487605    3.86310044250809
C         2.12220248198501    0.91704999703864    2.56486574561836
C         2.95888164247705    0.70805059881644    1.31319053243598
N         4.35324150423732    0.40931633362778    1.50951424380452
H         0.69970852203295    0.35008557605748   -0.50968144997405
H         0.84669580363472   -1.48959405152181   -0.71201400650155
H         2.09618792316845   -0.42995849201424   -1.36817981686765
H         1.36428094861483   -2.56529689840794    0.99762370569153
H         3.61357823791211   -2.95658550891415    2.13923447317166
H         2.19522616540352   -3.15883812189023    3.21243570405262
H         3.35714402832345   -1.86430023038564    5.60664936301971
H         0.83084508426973   -1.40858312556374    4.03545267552082
H         1.00901298819718   -1.26343108226952    7.17027932795237
H         0.70919042202322   -2.79405549355180    6.40685035845801
H        -1.14021407842491   -1.71571537874007    5.50920045946861
H         2.16237088481457    0.68562385898643    5.93412882693792
H         2.90399837318347    1.52587239288786    0.59252592286503
H         4.44333693555011   -0.31482430608714    2.22223305333368
H         4.87692318311575    1.18480120214765    1.91168324518688
