29
 energy: -42.036552352344 gnorm: 0.248452891627 xtb: 6.4.1 (79825abcba525fcdf90b791dcacef51065a7a4e7)
C         1.32711493774241   -0.33814514643368   -0.46671653363421
C         2.04907376345118   -0.58426353465607    0.84636151543442
C         1.94620861531215   -1.85061708756769    1.44096822345450
C         2.70202307057364   -2.56742588895236    2.65335220191069
O         3.33012414550617   -1.89597873390983    3.75056393639268
C         2.62376098583844   -1.48924624930610    5.02766786018722
C         1.19689807139213   -0.93407200907522    5.12635593853833
C         0.27347820323479   -1.12698227370008    6.30413787331602
O        -0.68861894711315   -2.14201240387698    6.08759000324339
C         2.36272897120472   -0.03063154644795    5.26241813474168
C         2.66145592617320    0.67208005887309    4.08828552346946
C         2.68006027664111    0.85131119129052    2.79694178707275
C         2.87735852628081    0.81576497688368    1.29021899909285
N         4.23825052906446    0.65473697849683    0.84968806387997
H         0.62484275370802    0.50075352247836   -0.44254094912204
H         0.75244663911990   -1.21293650325389   -0.74317287545893
H         2.17655309079344   -0.13921321829375   -1.14204801528918
H         1.40096598561621   -2.66788769213315    0.95040868898484
H         3.58660836260529   -2.89272389946495    2.09524432660598
H         2.11891558542469   -3.48814137157091    2.79258440330557
H         3.16659133557200   -2.04955318378529    5.78112953409565
H         0.61649180052327   -0.91115651790516    4.21447066008603
H        -0.25440869130533   -0.20427268327143    6.57384896494937
H         0.81759712464883   -1.46853364672397    7.19328613596758
H        -0.17712411541078   -2.95991672456239    5.97896876059104
H         2.51597852601251    0.32903354481007    6.27532065621688
H         2.54577003184928    1.67168843349608    0.69975627117759
H         4.76062849859635    0.03277265766390    1.46673473742530
H         4.74940168941579    1.53524444696177    0.82157614939385
