29
 energy: -42.038963175885 gnorm: 0.166996649745 xtb: 6.4.1 (79825abcba525fcdf90b791dcacef51065a7a4e7)
C         1.29680541804645   -0.14614728311371   -0.67169324128375
C         2.09227327157560   -0.57287356477357    0.66450337476032
C         1.98276576454656   -1.75402370605740    1.17267892302494
C         2.38667479131679   -2.49457253675897    2.50656985551400
O         3.02713334149256   -1.90690539620723    3.65131918403885
C         2.44848790869806   -1.22672860964036    4.73447812410860
C         0.98048714697484   -0.72689000307613    5.02850209704978
C         0.42021577137614   -0.94751161078038    6.43671330636549
O         0.46021591802693   -2.32837007552040    6.68315554516005
C         2.10136281302772    0.30267768605749    4.99190999171865
C         2.51270705888211    0.97590759317129    3.79192913589992
C         2.61722028474257    1.00570754953635    2.55082453240366
C         3.08265504013231    0.44080560385676    1.30165296651884
N         4.31931754542438   -0.30830251149146    1.69057429820253
H         0.25694378411148    0.18636301769298   -0.50437364070350
H         1.35884027233517   -0.95777212599808   -1.42470993557742
H         1.89929774015500    0.62174291519415   -1.12612861382612
H         1.28311482859035   -2.47434454823867    0.74307807634483
H         3.15699576599074   -3.22972904882558    2.18892199287822
H         1.44142783232363   -3.02906159070065    2.78255000818926
H         2.94795824872660   -1.71585463060276    5.57989526646532
H         0.08744837953578   -0.66963870053952    4.41200379628868
H        -0.64412767111271   -0.62504687368564    6.48783668029179
H         1.03811124630696   -0.51607036531491    7.23732553639520
H         0.04312904393586   -2.77301423787527    5.93936052491987
H         2.35844997224547    0.65553403071137    5.99133418540350
H         3.39222231412160    1.18324691817404    0.51603021540092
H         4.37365912567377   -1.03010865396387    2.39381353660049
H         5.07827464280482    0.29067413152286    1.95967424570673
