30
 energy: -57.474290730405 gnorm: 0.128403734094 xtb: 6.4.1 (79825abcba525fcdf90b791dcacef51065a7a4e7)
C         0.31288426895234    1.49074578941375    0.04401822251598
C         1.60198337857179    0.71763788018262   -0.20286072588653
N         2.78540064835682    1.57386203342746   -0.04084354047344
C         3.80505097831466    2.05257660543584   -0.94193011645685
C         4.16053864355822    1.03152137587650    0.13133211303818
S         4.36899178338509   -0.54383073321541   -0.86304849633486
O         3.18603102255917   -1.17846632348804   -1.40418649946078
O         5.47233200936482   -1.33607859797649   -0.35757354885336
C         5.11426670901829    0.38057920880570   -2.22657971454713
C         5.20040443909549   -0.41544650228608   -3.51137705544988
O         6.33853099925226    0.89156025310594   -1.65276648423785
C         3.98785577139952    1.40924196241266   -2.25967557523119
O         3.37303780461218    1.61618172167542   -3.29367726734500
S         1.78656661026863   -0.62997966043992    1.07011380762418
C         1.53170529215039   -0.08589942414761    2.74306733565141
O         0.69684068023232   -1.54589803950211    0.79168861555571
O         3.13622891984382   -1.17146401163337    1.13024763697606
H         0.10728619745686    2.09814812866639   -0.83920630505902
H         0.45882572524020    2.15272612812078    0.90080632407500
H        -0.45373747401633    0.80814922810712    0.42794584396292
H         1.51012747234459    0.09768762028966   -1.08792612037197
H         3.93454973263217    3.12803939399003   -0.85556401020674
H         4.65217090160813    1.25960173731611    1.06803562370472
H         4.72257533342657   -1.39351456313901   -3.39352611203052
H         6.23012952941808   -0.60060275878434   -3.83974167252827
H         4.61055655418217    0.08600654619698   -4.28440936111704
H         6.73722286562399    0.07909210396958   -1.26955068867642
H         2.44326133402905   -0.35548900817629    3.27778657161710
H         0.68357448241750   -0.73273403481542    2.96975169535006
H         1.13930042618656    0.92095452469227    2.90712716252224
