30
 energy: -57.474628810808 gnorm: 0.125197061632 xtb: 6.4.1 (79825abcba525fcdf90b791dcacef51065a7a4e7)
C         0.51664672258911    1.36723028794786   -0.30609889970956
C         1.73969313277186    0.48699469723929   -0.08301962293367
N         2.90594771557833    1.33917657769230    0.18805614603422
C         3.80044248773839    1.93919594332425   -0.77145796297457
C         4.28183965177804    0.78016431291124    0.09209256664107
S         4.63229558283022   -0.64934664487107   -1.06879454089987
O         3.46151624561050   -1.44606518209200   -1.36796697726455
O         5.89417500752764   -1.29207687552611   -0.76044503061199
C         5.01255676563995    0.55761442701502   -2.36024033738515
C         5.11562005305267   -0.01985960442732   -3.75583431421460
O         6.18855816929446    1.21553181036561   -1.83740985176400
C         3.80561444889541    1.47219083609659   -2.17346710288483
O         2.89197157833055    1.62817432849536   -2.96776588239446
S         1.61401461800757   -0.71014815637992    1.33883200968836
C         1.34167386549569    0.18913280125840    2.84776387536296
O         0.40395078395622   -1.45083456922751    1.03707246521395
O         2.83529646204519   -1.46730810891919    1.57032540862375
H         0.84242430179692    1.87155206846055   -1.21759341018290
H         0.25682397195825    2.06273859269380    0.49537665478722
H        -0.36232780105385    0.71327959124687   -0.33437702828129
H         1.90921329973447   -0.12835794848084   -0.95978677079781
H         4.25267692022521    2.91323568457537   -0.60538615022592
H         4.90566665710289    0.83151076684533    0.97489481529369
H         4.09103727897970   -0.21034513323761   -4.09164978944015
H         5.61151984117708   -0.98754334999335   -3.61401932306395
H         5.62788247110238    0.67879430635315   -4.42398441787626
H         6.97861961972282    0.64412260042946   -1.96073244944885
H         0.28234817628821    0.32791045758139    3.06709802416706
H         1.72689456041742    1.20051509904291    2.71428149213677
H         1.91559403242106   -0.28106625405158    3.65037247897656
