30
 energy: -57.473433287324 gnorm: 0.134741186707 xtb: 6.4.1 (79825abcba525fcdf90b791dcacef51065a7a4e7)
C         0.99858592776951    2.00008105755032   -0.18778339593743
C         1.78420363950360    0.69666612088590   -0.12193566182897
N         3.12561695560842    1.12895412529997    0.29469715150657
C         4.19108819417043    1.68921311792006   -0.50009385828002
C         4.42393305144038    0.40166652123207    0.28017821680624
S         4.64762209403177   -0.90910474938979   -1.04111716963866
O         3.41274415034160   -1.53424335371226   -1.46451655260497
O         5.80379395666302   -1.73817052514344   -0.76464324401950
C         5.09058955559786    0.32150547470738   -2.28954183312018
C         5.12562652434074   -0.05921206409603   -3.75433103701680
O         6.42099840070981    0.68141800537667   -1.85404031152527
C         4.20567970819338    1.52225070647064   -1.96831065742419
O         3.43258637743263    2.00502632380801   -2.78024609876716
S         1.15224648288785   -0.48646464061517    1.17090615836377
C         1.29234205642702    0.23923978244402    2.78753147587330
O        -0.25028861766383   -0.75624707502079    0.91784017033589
O         2.10248370797343   -1.57555052490008    0.99958517252650
H         1.09642786262432    2.44569725834345   -1.17932103400555
H         1.29321302574115    2.71143809930028    0.58730934398387
H        -0.07925457351682    1.83769048846338   -0.07404451635147
H         1.65436286034929    0.15367039352924   -1.05167414900404
H         4.48503745095703    2.68456210279403   -0.17803276693667
H         4.87741518491407    0.35104795130968    1.26146715880048
H         4.13090594917009   -0.27855450834199   -4.15588613988775
H         5.83373981970494   -0.87485459523799   -3.94338855593766
H         5.48965482413611    0.79088861321627   -4.33893934050901
H         6.81708751558494   -0.11998233564699   -1.44564717940302
H         2.22074393273769    0.80729517423151    2.71738412354716
H         1.12295198548022   -0.43946457909111    3.62405647673261
H         0.42022492942080    0.89661781668800    2.83132551258428
