30
 energy: -57.469800888429 gnorm: 0.130118504159 xtb: 6.4.1 (79825abcba525fcdf90b791dcacef51065a7a4e7)
C         1.02729175446829    1.82904432723764   -0.35768372197564
C         2.02621546494133    0.68620854331743   -0.22923381569672
N         3.22191739887358    1.29204211382639    0.37335091423266
C         4.39151168399840    1.78795290390797   -0.30997415460706
C         4.45498514217459    0.46113077850782    0.43590198535152
S         4.56428954007352   -0.81710670756972   -0.93089766025229
O         3.36593436015680   -1.57813136049434   -1.21334264772095
O         5.83211719424943   -1.48133769744660   -0.70301284653254
C         4.96120083244858    0.32501461501710   -2.27522133755844
C         4.40603949495036   -0.30505523824148   -3.53481997263348
O         6.39829464346791    0.46884304161217   -2.21811560842506
C         4.40051244015232    1.65548740665785   -1.78174928415457
O         3.73696077900228    2.47152413054866   -2.40123936815844
S         1.33552172887189   -0.55023745923715    0.98103541277683
C         0.86340525397969    0.31661110122821    2.45935564514636
O         0.04804100665633   -1.03719676474735    0.52365844195571
O         2.43851521097702   -1.46217396016027    1.24596356524037
H         1.58586875450858    2.38279884693294   -1.11441445264751
H         0.94882864361412    2.40403107880276    0.56797091246129
H         0.05008635273713    1.51319054257992   -0.74024531017155
H         2.10457787791822    0.10836662287947   -1.14360498414275
H         4.75780143046487    2.74830734488668    0.04273029557892
H         4.87216415245209    0.23801554625924    1.40920444439212
H         4.77312093881610   -1.33152981034628   -3.63693655662542
H         4.71252264282042    0.29847359218284   -4.39752557320717
H         3.31208113644816   -0.29458463539436   -3.54482539784908
H         6.78552983294898   -0.33350837404667   -1.80315156483489
H         0.98125998283230   -0.48350331446485    3.19111025391542
H        -0.12065244995245    0.78434395675453    2.41504883235694
H         1.61511975416026    1.10237314526453    2.56960717824996
