30
 energy: -57.476457519069 gnorm: 0.137506909184 xtb: 6.4.1 (79825abcba525fcdf90b791dcacef51065a7a4e7)
C         0.43158231249568    1.37005816075703   -0.26394478694738
C         1.67422716094245    0.49486581486616   -0.16248657368946
N         2.89808874361661    1.20624701444853    0.23241233603341
C         3.85177018189281    1.77593062908266   -0.68778553503254
C         4.25715265323840    0.60110545693167    0.19327537021165
S         4.67193368483531   -0.68144012383739   -1.10941920558734
O         3.56854838205733   -1.53191461334375   -1.50213139441619
O         5.86740669140041   -1.34203961449678   -0.62467817388658
C         5.15738367614577    0.53925656120428   -2.35176527163981
C         5.29994543056921   -0.15552533171656   -3.68920129321427
O         6.34443130387589    1.21153204368069   -1.87411487143109
C         3.93068806381655    1.41620628307488   -2.11891107241099
O         3.08699741825625    1.73463289745280   -2.94157463406142
S         1.44340954636957   -0.62476483026826    1.30848543277300
C         1.11744353854404    0.51015694199772    2.63718774387008
O         0.31186311346791   -1.51550056625280    1.13492799335555
O         2.79281814299656   -1.15878562039616    1.41951679321710
H         0.21726962575042    1.80563061100540   -1.24151342351203
H         0.42296535864936    2.22211779742862    0.41981163413129
H        -0.35239647108151    0.68697383503073    0.08220611428181
H         1.80022219049074   -0.16935251851162   -1.01045820527078
H         4.26488288739542    2.76926322132735   -0.53456228608594
H         4.93608998369339    0.72027825954784    1.02752845502843
H         4.32403055513671   -0.18080557493616   -4.18496100966632
H         5.65707420174988   -1.16775502694491   -3.46494695523402
H         6.05678351490889    0.33966225703245   -4.30478231900419
H         6.89281913218687    0.49502227311664   -1.48450149593182
H         0.06344297059045    0.67321446326117    2.86529445246083
H         1.78893036909177    1.36094529289718    2.51730738086312
H         1.53869004195805   -0.06011559129871    3.46904873084924
