30
 energy: -57.470914310749 gnorm: 0.129506250957 xtb: 6.4.1 (79825abcba525fcdf90b791dcacef51065a7a4e7)
C         0.17908146716026    0.75334343478733    0.24655840898787
C         1.52296782970191    0.09399562199637   -0.03566758798988
N         2.42750774580058    1.25221680692982   -0.04896220699182
C         3.19019196897671    1.88358986531064   -1.09800591144682
C         3.90769266601335    1.10492317932024   -0.00270302390980
S         4.50443159535261   -0.34201492587577   -1.03432913237870
O         3.40808425375763   -1.19211083478406   -1.44706184930673
O         5.76611268152843   -0.94628201262292   -0.65545792705001
C         4.80374755561789    0.73306420159363   -2.45693261292955
C         5.37742081720480   -0.09678140182174   -3.58566469240666
O         5.69915500991995    1.80181640937720   -2.07588076673051
C         3.40011070004263    1.33125128826296   -2.45248224435049
O         2.57903111613369    1.25894631244503   -3.35280722152291
S         2.15697880595104   -0.87510058381124    1.42360991478960
C         1.76380919329183    0.17380977734176    2.80381128000763
O         1.47058359418573   -2.14664814111657    1.54993524171688
O         3.61210413765615   -0.84476315918172    1.41362808983728
H        -0.36667631225134    0.95445512189318   -0.67701956074864
H         0.30631573059731    1.68349214805370    0.80534060011665
H        -0.46507009424459    0.06632269039335    0.80702128831204
H         1.55756601568814   -0.65385512570319   -0.82029416617066
H         3.25393972881961    2.96330371570876   -1.20290264071006
H         4.56840710388551    1.51295993092062    0.75102018797513
H         6.04961138051466   -0.85101765927192   -3.16362897609171
H         5.97237597175976    0.57144749520224   -4.21965083462494
H         4.60532512504265   -0.50706896831419   -4.24330212162031
H         6.58485440611482    1.42730153579438   -2.27883207343029
H         0.73488145594579    0.05608435071509    3.14584352745964
H         2.05940756234385    1.07989404921552    2.27396264174116
H         2.49810742113575   -0.08930815579039    3.56946599750948
