30
 energy: -57.474385902765 gnorm: 0.125874064274 xtb: 6.4.1 (79825abcba525fcdf90b791dcacef51065a7a4e7)
C         0.69032953202203    1.56206146030300   -0.43978856516992
C         1.82033916877164    0.58486266543948   -0.14216074261305
N         2.96000685177228    1.40035130165883    0.30053739025972
C         3.90804036879831    1.94936245938720   -0.63788183800834
C         4.31634897392011    0.78915830432781    0.26102163032895
S         4.60257274359316   -0.64065887885198   -0.91697607450233
O         3.39125044073511   -1.35565128223690   -1.25825744161195
O         5.83857393774475   -1.36265615720670   -0.68994693624924
C         5.00412338022621    0.49342153375751   -2.26671847368634
C         4.92522129398324   -0.25669707310614   -3.57930271262994
O         6.34465526870969    0.85905385194552   -1.86863108781788
C         3.88514768700253    1.50732796887913   -2.04778665978645
O         3.11010231636999    1.80830382867563   -2.94148845040195
S         1.59924089614840   -0.69841029514127    1.19010583418846
C         1.05508465234210    0.26776333379097    2.57940551445823
O         0.50741556875837   -1.56477022719504    0.78852447204994
O         2.89588605416340   -1.30943430146481    1.44263450017780
H         0.68992775583045    1.90191987020398   -1.47699145447227
H         0.89932863579278    2.47568230318420    0.12165515974484
H        -0.29796372785286    1.19093835115151   -0.14552431324336
H         2.01726795490639    0.06241610989371   -1.07188395050850
H         4.38004821306371    2.89152667519110   -0.37258121405415
H         4.93632236299021    0.81882955531454    1.14752545236917
H         3.86206377713484   -0.42583187751853   -3.77909296057179
H         5.44434775657662   -1.22258719325439   -3.58128119726770
H         5.32385244926389    0.36717624390768   -4.38480250728624
H         6.66064880945653   -0.06578944823556   -1.76505987534929
H         1.84495186167463    0.89097790491851    3.00041740580457
H         0.67365395747356   -0.35802323044772    3.38687593734438
H         0.15010072542779    0.80732206267058    2.28866069427955
