30
 energy: -57.472252584750 gnorm: 0.134882502020 xtb: 6.4.1 (79825abcba525fcdf90b791dcacef51065a7a4e7)
C         0.64302096355454    1.85645397064404    0.06420084513933
C         1.69689411255954    0.76848436138009   -0.09733906039054
N         3.04338689857198    1.25157012177853    0.23945590193462
C         4.11150306506775    1.75783608172286   -0.58736600327464
C         4.30287118554531    0.46047878135579    0.18791440743881
S         4.33307344675148   -0.77397665156954   -1.22247109416141
O         3.07849434083574   -0.89351001836021   -1.93432212190927
O         5.14468530646745   -1.89488202417159   -0.79191494443134
C         5.32890644101431    0.35352370379677   -2.22558895069475
C         5.51074935072656   -0.18007507047780   -3.63057519536396
O         6.52859774226891    0.53384455869934   -1.43983360075561
C         4.34928934955536    1.50579242275428   -2.02391798932296
O         3.72589626789087    1.90382712840718   -2.99496597716690
S         1.34520654502648   -0.53096640976995    1.19043101096325
C         1.47930861364844    0.27751121411686    2.76781227899988
O        -0.01853754623147   -0.90592465244318    0.86865774321260
O         2.37317083808470   -1.56129881836166    1.20112056365721
H         0.61757121532346    2.41873941036655   -0.87093610931472
H         0.88883733012163    2.59732539595154    0.82858724333030
H        -0.27234042532711    1.29934129433887    0.29395368828603
H         1.56929579030879    0.17683414784364   -0.99721979072326
H         4.60967032750531    2.62944435156622   -0.17146031712483
H         4.84270162084596    0.39451715412177    1.12352567074825
H         5.54965561531124   -1.27248102621888   -3.56762949066997
H         6.36567783116811    0.27282016240075   -4.14673711261883
H         4.60040952871955    0.03689901190512   -4.19728348837186
H         6.71029137157788   -0.39725654961519   -1.18302200625124
H         1.94959676109577   -0.37410113338877    3.50521856464474
H         0.46136604150775    0.58409523197318    3.01051753847778
H         2.16011287528137    1.07900239398663    2.46987012606335
