30
 energy: -57.475725835360 gnorm: 0.143654085096 xtb: 6.4.1 (79825abcba525fcdf90b791dcacef51065a7a4e7)
C         0.55353176948315    1.42581471513040   -0.26614162467400
C         1.78800823918535    0.54911838343093   -0.09912975236845
N         2.96670596793753    1.35348234857244    0.25231874586014
C         3.82602192603753    1.87768862965311   -0.78092629574180
C         4.33238717889200    0.77326127932495    0.13812294940630
S         4.56955410828919   -0.63735974115733   -1.07343801957349
O         3.41862367537198   -1.42881135816202   -1.45284849138857
O         5.76091254302445   -1.35355325108152   -0.66325124282635
C         4.99598966365765    0.53566212021006   -2.38162694724310
C         5.08305282925122   -0.09025334307874   -3.75728340309791
O         6.16408749254793    1.18947548549827   -1.83640969992784
C         3.80604244515577    1.47368666374453   -2.20224027280967
O         2.86022125724043    1.63026113209532   -2.95781383007064
S         1.66741294519955   -0.66748878271056    1.30654871471344
C         1.12187907120109    0.24243248384937    2.73279805526045
O         0.74775671527133   -1.74308209701688    0.98833320805178
O         3.01270157464400   -1.17699398065211    1.52793680300839
H         0.52763924649432    1.93966241870305   -1.22873387972111
H         0.47478712061764    2.13653831627734    0.55985714687146
H        -0.29020419809494    0.72660107220220   -0.25010174792552
H         1.93172685473591   -0.07277656929062   -0.97588982353377
H         4.26880419145647    2.79723994160271   -0.40780641512478
H         5.00767137864868    0.75349793624710    0.98354419421800
H         4.09415878430431   -0.45077916275935   -4.05883991887828
H         5.76372576063665   -0.94463888619122   -3.66162971944011
H         5.57675659428842    0.59445371368329   -4.45326290840357
H         6.67992765118154    0.56780798737550   -1.27663072900442
H         0.03668559688468    0.26083883270802    2.84028736783306
H         1.56800226315576    1.22543818403161    2.57858854211985
H         1.42734548413279   -0.14947660841318    3.70632238173933
