30
 energy: -57.474243026635 gnorm: 0.130282176653 xtb: 6.4.1 (79825abcba525fcdf90b791dcacef51065a7a4e7)
C         0.68490049513453    1.99694653184516    0.05873395244136
C         1.70833245141481    0.89112785947344   -0.16526086288713
N         2.99994756049632    1.42410990662034    0.29026774524343
C         4.12198278362443    1.80731458017554   -0.53131767860307
C         4.17045239116392    0.50557991460492    0.25859031581465
S         4.20584821630744   -0.82807496959796   -1.05825879760973
O         2.91092787361775   -0.98354304416394   -1.68595284443567
O         4.99294332365386   -2.03434922571885   -0.89730861689175
C         5.23682338425637    0.24445708615184   -2.08585357802679
C         5.37289022343020   -0.19978779395931   -3.52665653101600
O         6.44652161721096    0.55767273185579   -1.35941538633553
C         4.25871487432564    1.40727802586040   -1.94730681424792
O         3.65353316327944    1.89599983092522   -2.88799315511362
S         1.53336271040888   -0.56327146318812    0.98570237775185
C         1.45012858310772    0.22114690539037    2.57865906355668
O         0.29905247067950   -1.26249654891526    0.68322563708111
O         2.72885957106116   -1.38793116015642    1.08127103955297
H         1.01231065749959    2.76885201437349   -0.64002082888848
H         0.76776511902117    2.40965822240042    1.06690320478290
H        -0.33378108846391    1.62044398044735   -0.08817091343230
H         1.68311360542723    0.50502885841293   -1.17837890373134
H         4.60885255403955    2.76417238784776   -0.36329915776831
H         4.69254939551825    0.41118126614840    1.20179760556855
H         4.33687820801850   -0.20764510598924   -3.88083727229702
H         5.85146181946983   -1.18639920248120   -3.52931715693660
H         5.97521668214224    0.50602683605119   -4.10629709036371
H         7.17873940432846   -0.08074771995194   -1.50838008894709
H         1.89651917332723   -0.30742382709629    3.42179964764991
H         0.43482856235931    0.58279004826868    2.74445046268440
H         2.07004974480400    1.11207377205233    2.44982136718715
