30
 energy: -57.467411253002 gnorm: 0.138749858228 xtb: 6.4.1 (79825abcba525fcdf90b791dcacef51065a7a4e7)
C         0.51371982104764    1.06230277832826   -0.44041911531141
C         1.84592529367571    0.39140183184620   -0.13132033104483
N         3.00585594706511    1.18033780179236    0.30684252894153
C         3.91641484705830    1.85020987152958   -0.58924082358513
C         4.38629675790924    0.63471134592367    0.19980378800383
S         4.57387170964481   -0.67266584953941   -1.13044441944784
O         3.40065571120057   -1.43072443025323   -1.50978627100913
O         5.70856866314853   -1.52540149022925   -0.83748366157719
C         4.99997125050426    0.55585582934005   -2.38677220510821
C         5.09526391092326    0.13611648843531   -3.83815742048197
O         6.23086249466115    1.17191569502741   -1.94567891695401
C         3.89636417724797    1.54932586206547   -2.03589798117576
O         2.96267343503911    1.82383802310879   -2.77268110345069
S         1.56406179393248   -0.64397395407102    1.39155790777353
C         1.15696744264223    0.50081830313777    2.68904624180580
O         0.54544849231825   -1.66658161961537    1.24792583799251
O         2.94480050405049   -1.05423246429942    1.60050358820624
H         0.69435748842590    1.74458836656791   -1.27297550675429
H         0.10983699447243    1.58593748726695    0.42922913774562
H        -0.16133922675447    0.32490623342105   -0.88940575131348
H         2.12107251167516   -0.34357735809614   -0.87979624726551
H         4.08295876779334    2.87035506346743   -0.25395565845163
H         5.06215552021692    0.56986645536763    1.04250568334085
H         4.21669813099032   -0.32282633302312   -4.30325986891881
H         5.96531619650321   -0.51706981696358   -3.97525808972515
H         5.26974242567490    1.08941411309427   -4.34583401000066
H         6.74372463815505    0.38668132630726   -1.65192144609789
H         0.08812596564408    0.59744211990127    2.88341536968589
H         1.66837456412655    1.45886786690583    2.59050451278862
H         1.63508790466707    0.15488994977099    3.60903889316468
