30
 energy: -57.477796531309 gnorm: 0.133475204298 xtb: 6.4.1 (79825abcba525fcdf90b791dcacef51065a7a4e7)
C         0.47363307115209    1.42393823229499   -0.20880674665804
C         1.73182807540940    0.56606688619392   -0.24653818012488
N         2.87987982906044    1.37683082171680    0.18297874836173
C         3.90856896144131    1.96465239262932   -0.63986748699128
C         4.24189457730011    0.78217061752432    0.26093657230371
S         4.46731731043804   -0.66447031614359   -0.90970188079757
O         3.24973636656655   -1.31146306906611   -1.35002659583218
O         5.53618930525656   -1.51514351007802   -0.42556447120638
C         5.02670509419371    0.41671315107457   -2.24660631171607
C         4.90070337012887   -0.20820408167704   -3.61969875841859
O         6.40277947055127    0.76232090608858   -1.97063368047585
C         4.16747473065290    1.66419147153790   -2.06339873396094
O         3.60751487846150    2.26237092051676   -2.96816997821470
S         1.61101375646180   -0.69420913427619    1.12010604199447
C         1.37653316785845    0.22797333726970    2.62155515635524
O         0.47704464807411   -1.53001851548936    0.77446691429625
O         2.91268408244969   -1.31435369404332    1.31881390879250
H         0.05418776776088    1.81319820516430   -1.13823455301915
H         0.61953788900412    2.36588987777126    0.32508613559002
H        -0.31528612735168    0.78849065121574    0.20935619900278
H         1.76820110455330    0.06686570324265   -1.20861498093308
H         4.21642549543923    2.95641336147944   -0.31973662546842
H         4.76494005288676    0.77364845935079    1.20829458629106
H         5.47073759905554    0.37334220875000   -4.35160826140638
H         3.86815551012451   -0.27439666453128   -3.98288380953740
H         5.33687083205422   -1.20784671784722   -3.53351768256155
H         7.00488200397112   -0.01349817757184   -1.93201590964306
H         0.50659262546718    0.87928845881623    2.71391146552734
H         2.28271523577488    0.72525563355869    2.96890377148273
H         1.21606823041913   -0.60852422682282    3.30651859302873
