30
 energy: -57.471103075399 gnorm: 0.134431479827 xtb: 6.4.1 (79825abcba525fcdf90b791dcacef51065a7a4e7)
C         0.74086909382838    0.90974230313741   -0.75729169581310
C         1.90264914435841    0.14272564606314   -0.13892756843289
N         3.00562337809925    0.98968387364067    0.33641981414047
C         3.94186382544829    1.75803344325334   -0.44710082880727
C         4.39003269040860    0.45853940473563    0.20961629282596
S         4.79970291249796   -0.73460955173628   -1.17694257071209
O         3.76744692179658   -1.70806636383990   -1.46298147325263
O         6.14103415679440   -1.27283209131424   -1.06892285049315
C         4.98254348149997    0.59555662065938   -2.38789802599693
C         4.75542164384188    0.15631223060712   -3.81872327046812
O         6.29058340580404    1.15168624401859   -2.12533813051278
C         4.04838489032148    1.70758109091409   -1.92014453262996
O         3.38573582998428    2.42820864963932   -2.64923773147760
S         1.41323654742260   -0.62494144156891    1.48642492939846
C         0.82999508996222    0.63394547188422    2.59763338902099
O         0.20387222964312   -1.38335109521812    1.22916550647194
O         2.46724846957348   -1.29310094214209    2.23544527474897
H         1.04615773759805    1.16420808091244   -1.77382489272029
H         0.48044979315656    1.81697043162404   -0.20709025006411
H        -0.13584883855138    0.25232885800365   -0.77214439889711
H         2.06967031309286   -0.69853725544166   -0.80262727324523
H         4.08669786777089    2.72909249266094    0.01864218190249
H         5.04137676373083    0.50679496652347    1.07249436745007
H         5.25941196317211   -0.75488791138686   -4.15715301316661
H         4.91221657286227    0.94660357481802   -4.56256119969378
H         3.67742059308619    0.02720371037075   -3.95362826626108
H         6.91831630265131    0.40808020455119   -1.98780445404117
H         0.38771110740530    0.21826994878723    3.50379913610537
H         0.18134306497235    1.40467817436873    2.18010694097414
H         1.77724167902477    1.13120267989071    2.82148880910251
