30
 energy: -57.470652284593 gnorm: 0.124616236495 xtb: 6.4.1 (79825abcba525fcdf90b791dcacef51065a7a4e7)
C         0.49460490589471    1.23011607808372   -0.57410690536455
C         1.75383539873269    0.46567000597847   -0.18631529225697
N         2.91732926154314    1.26756441166095    0.21753266925265
C         3.86422945389542    1.88665767679458   -0.67740588575503
C         4.30714613402898    0.73540789729775    0.21661079309189
S         4.62870175304063   -0.66118210211995   -0.99174269514671
O         3.44843887930896   -1.44579845700383   -1.28558884002254
O         5.88630539565783   -1.29303880132792   -0.64574927797378
C         4.93592321845507    0.48712811197431   -2.35416130278226
C         5.07823481481885   -0.14904480096682   -3.72047469365010
O         6.12897993261474    1.15672692848974   -1.88785732149917
C         3.84096940602057    1.52106804296763   -2.10903200566124
O         3.04727276583737    1.96775733755925   -2.92174290825803
S         1.52508307008789   -0.66272806426708    1.27826599357157
C         1.56935467176607    0.36319490704542    2.72922194831171
O         0.29903338693553   -1.43017805443932    1.16985771599467
O         2.78138372499423   -1.39062935417069    1.37964698427888
H         0.38068843016567    1.47646874207443   -1.63128576380584
H         0.40978501842046    2.20669606116469   -0.09171717372882
H        -0.30913188052798    0.70189073654221   -0.04871890941067
H         2.11472531430917   -0.27837043102048   -0.88794118880815
H         4.03845105454116    2.94720169540939   -0.51696128597373
H         4.99294056168134    0.85624295016749    1.04499554544854
H         4.22414600483102    0.07572336976481   -4.36765179840701
H         5.06435450826785   -1.22765650160648   -3.52338573091185
H         6.01680839694990    0.04734408292518   -4.24722479570432
H         6.79986912451407    0.56068863538500   -1.48715782173427
H         1.27872920970673   -0.32735379997220    3.52182332785235
H         0.77267355335698    1.10707374502916    2.69681588678358
H         2.60113482486616    0.64431098994584    2.95517668703919
