30
 energy: -57.473803531364 gnorm: 0.119172812492 xtb: 6.4.1 (79825abcba525fcdf90b791dcacef51065a7a4e7)
C         1.17657478993147    2.09226101056716   -0.47841128978269
C         1.97271806273769    0.81844797598297   -0.22547282863247
N         3.21791752303628    1.16763622604766    0.47266139543988
C         4.39554054132778    1.58984501590451   -0.24549987699672
C         4.38638151021146    0.24596700675409    0.47194385393154
S         4.57056886790686   -1.00892770210216   -0.90837998200488
O         3.25788387168389   -1.51655621959047   -1.24625604583791
O         5.78087199012410   -1.80117526731862   -0.81876180832262
C         5.00931474174941    0.18514049847746   -2.19324924750512
C         4.47041898812869   -0.21814754431060   -3.54924739075789
O         6.40898641067939    0.41587246761878   -1.91599795633378
C         4.42763182474960    1.51429104953228   -1.72096986084327
O         3.94589850968504    2.37146569387484   -2.44427435727021
S         1.26195891469895   -0.43733602394499    0.95284638759014
C         0.82300621723599    0.66603077715745    2.27559100799135
O         0.01301684534580   -0.99752844228348    0.47299450641468
O         2.28665635871762   -1.34644645346597    1.44470317838454
H         1.54177245174948    2.56383137210155   -1.39249322865006
H         1.29751026789622    2.77737026221745    0.36396786768840
H         0.16019899741632    1.71578662749408   -0.64056758210832
H         2.08426479164197    0.26334500233710   -1.15042398982461
H         4.92541959580684    2.43170057553147    0.19194328074555
H         4.90175485943525   -0.05453348004477    1.37484251913929
H         3.87826406308105    0.56573593212502   -4.03267874220067
H         3.85572177838753   -1.11876362894955   -3.43315289561886
H         5.27106476091910   -0.42843853782909   -4.26457855743923
H         6.95908637037868   -0.37245630078348   -2.12055071497547
H        -0.17213588106076    1.04738595391762    2.04364692791785
H         1.58885842788511    1.37933033158158    2.58182755079007
H         0.75444662919106    0.04559566776441    3.17281558324827
