30
 energy: -57.474981288458 gnorm: 0.126482028854 xtb: 6.4.1 (79825abcba525fcdf90b791dcacef51065a7a4e7)
C         0.68555880108220    1.91707764101025   -0.17654149207458
C         1.81156536171443    0.89131148063476   -0.19483461748495
N         3.07860418934430    1.37370461681182    0.37239990297239
C         4.27002861912394    1.77619988848750   -0.33422392518756
C         4.25086565720416    0.45870691018158    0.43040835312373
S         4.39994871197481   -0.79691818017732   -0.95348452536695
O         3.13357931349688   -1.12886103827632   -1.57082667658658
O         5.22429425704362   -1.97788261353479   -0.79131578703570
C         5.14838690087637    0.29391925723033   -2.18600219342654
C         4.89655229806095   -0.20770034271246   -3.59196732502097
O         6.54780991940765    0.35915608329825   -1.83026961194034
C         4.41682945730678    1.57318143569547   -1.79058340771376
O         3.88630512136687    2.25875032740938   -2.64995758525233
S         1.42992509270558   -0.49955722903853    0.98433591088029
C         1.31003988583751    0.19484501884726    2.61626242700547
O         0.16812110751254   -1.10717404764452    0.60673536706057
O         2.60546676581297   -1.35775290358182    0.98091733539320
H         0.31904459906286    2.26031631426620   -1.14563812271503
H         1.00347586095548    2.79490129746006    0.39087113781494
H        -0.15681774764788    1.47972688257460    0.37133936962687
H         1.92401577413333    0.24976555980281   -1.06195073840988
H         4.66886217004750    2.75362802229862   -0.07651257859537
H         4.80837223286995    0.23084302055125    1.32951941914147
H         5.49496575577708   -1.11704068030588   -3.70956033295061
H         5.10721934459572    0.57955164427505   -4.32565229018346
H         3.84279596887097   -0.49462136196384   -3.65699471132553
H         6.98186452016499   -0.50441643072640   -2.00846377786003
H         0.87144026323894   -0.55603692711082    3.27455134327677
H         0.53418876356843    0.95236192766752    2.50080744884531
H         2.28177043983077    0.57103880667618    2.94621703757802
