30
 energy: -57.469771341701 gnorm: 0.124342345855 xtb: 6.4.1 (79825abcba525fcdf90b791dcacef51065a7a4e7)
C         0.49179141369749    1.45006206335159   -0.34380724748459
C         1.74564778105693    0.59677532116360   -0.20179485635665
N         2.88707245849920    1.35543743503409    0.32870234024071
C         3.80387596527195    1.97949969406419   -0.59370163810450
C         4.28129621521270    0.83618179469584    0.29270185284070
S         4.60378141713723   -0.59459162832486   -0.87471860207429
O         3.58616007846351   -1.47680659495481   -1.40493779212657
O         5.87136912850551   -1.19167357374932   -0.50426509724215
C         4.91679825118468    0.48041342110379   -2.29442647435692
C         4.85845802231575   -0.21043301835296   -3.64020077404312
O         6.22885394771627    1.04268216854988   -2.06738020368919
C         3.81783051595545    1.49393769656390   -1.98933230497390
O         2.87726194847974    1.67846304634205   -2.74515362519012
S         1.63722888770274   -0.70840540742424    1.12310392920446
C         1.45810412620027    0.22265587615793    2.62669639586574
O         0.51976038358551   -1.62060737901043    0.97117838005768
O         2.96912096981142   -1.27951444114950    1.25840981086788
H         0.35185895114828    1.82997112446629   -1.35740566223579
H         0.32400470092026    2.18823230488771    0.44394591358789
H        -0.27641242529992    0.66892480635088   -0.31669957350584
H         2.01239182027540    0.08868640342104   -1.12201758244916
H         4.03311278836085    3.01556215954197   -0.35944902532743
H         4.86774703604272    0.86518823622025    1.20175106411160
H         3.83817274312310   -0.51172217489422   -3.89917842474090
H         5.60262589145076   -1.01069850215030   -3.73091604481816
H         5.16921414942459    0.55352849250983   -4.35905268650429
H         6.97920928251380    0.41847497558505   -2.18247275387460
H         0.55328230354622    0.83029317279290    2.66684621292152
H         2.38182734203838    0.79238081892466    2.73278877571928
H         1.52324147237822   -0.69229785348306    3.22106066065903
