30
 energy: -57.474314496438 gnorm: 0.131054408147 xtb: 6.4.1 (79825abcba525fcdf90b791dcacef51065a7a4e7)
C         1.12940942476370    2.25445845580114   -0.21185507266577
C         1.96465775050128    0.98082414568924   -0.23710370122922
N         3.22706732889555    1.37095892107121    0.40629543589665
C         4.48903791198386    1.56693308536478   -0.26440287481305
C         4.23998876801211    0.28694245562570    0.52326202380757
S         4.14977831044896   -0.94964263903053   -0.88268926206130
O         2.90636655225937   -1.18682914641914   -1.58458569868610
O         5.03795275275394   -2.07789287652108   -0.68591825988851
C         5.00952153922629    0.04321496228287   -2.12537232820669
C         4.79431785338097   -0.27158898842057   -3.59042068552432
O         6.38275312610620   -0.08107263841441   -1.69181275818442
C         4.64170237696448    1.47055162674770   -1.73108419254097
O         4.34652554542413    2.39571311264756   -2.47063244444752
S         1.41815574174834   -0.40518233642220    0.88134602213503
C         1.15875592066014    0.49141566413727    2.39414966349276
O         0.12809299721166   -0.78227235920786    0.33593709652283
O         2.43699057341963   -1.42606198716051    1.07676877343430
H         1.62756898537869    3.03890826255870   -0.78436645467031
H         1.02290828259336    2.65287486580230    0.79983885018903
H         0.14798310117115    2.10584225602795   -0.67635800247918
H         1.94364781086185    0.57337387091593   -1.24192184106204
H         5.19797733530546    2.29624065178785    0.11817322812792
H         4.78027059422763    0.10647271204960    1.44340466271100
H         5.61008357570272   -0.84083242971154   -4.04793005408922
H         4.65421888577680    0.65114574212306   -4.16607059632657
H         3.85131128616602   -0.81878138876465   -3.68138070180495
H         6.60555202463131   -1.03808344870231   -1.71193746280029
H         0.52143307148605   -0.13049122046130    3.02390281810822
H         0.59335227822566    1.37893370567858    2.10825260143110
H         2.09790776750811    0.74491738727175    2.89252980503426
