30
 energy: -57.468396613889 gnorm: 0.131293157014 xtb: 6.4.1 (79825abcba525fcdf90b791dcacef51065a7a4e7)
C         0.24195654154071    1.53297177393232   -0.01861500647464
C         1.54079040519501    0.74693016383515   -0.14347816193892
N         2.74599673883092    1.56994435732329    0.02964275607015
C         3.74652793773074    1.97245356006367   -0.92834237033935
C         4.09785872480685    0.96034843078107    0.15472149690425
S         4.40752586857088   -0.57944074462738   -0.86857474073870
O         3.20372441638161   -1.10035956046758   -1.48053429537847
O         5.42900771352386   -1.50291647413537   -0.41659168173401
C         5.08459138181939    0.36712714124064   -2.25232954790032
C         5.37707403223043   -0.39398945010846   -3.52784367022292
O         6.27531071744281    0.94188853251671   -1.66835771138231
C         3.93947505913559    1.37537247765267   -2.26625698595261
O         3.35430575578061    1.67462255639289   -3.29485361752788
S         1.70161482597802   -0.62577735536081    1.10568867331625
C         1.67567154714954   -0.07857421808869    2.79673768789447
O         0.72725241871268   -1.67102061985829    0.85666240474674
O         3.10801971737050   -0.99647874765039    1.05077522869248
H         0.12942509936221    2.24550788063060   -0.83771371811271
H         0.28906303966463    2.15768815142641    0.87643423621745
H        -0.60044788654376    0.85585132155796    0.16279625743369
H         1.60712777268430    0.02316028701682   -0.94838384142774
H         4.01886701057421    3.01912994763595   -0.82275309349773
H         4.57328776399416    1.21353564916268    1.09333735881625
H         4.83508948542039   -1.34512269118908   -3.54845774868788
H         6.44901772243709   -0.61674814606549   -3.58912345374516
H         4.89040237926596    0.06314851280855   -4.39452136035867
H         6.66631090754378    0.16741113632786   -1.20660273516207
H         2.61263014121462   -0.45773901611519    3.20646963937118
H         0.78409556494481   -0.49422423723453    3.26730544378561
H         1.48481470967208    0.99757762896448    2.78564938156719
