30
 energy: -57.471654790665 gnorm: 0.120129015669 xtb: 6.4.1 (79825abcba525fcdf90b791dcacef51065a7a4e7)
C         0.64471968727723    1.63903852249475   -0.37484045481204
C         1.73484138235776    0.59300760710170   -0.18022396581355
N         3.04638685615822    1.10396575442088    0.24240593484486
C         4.17119338532805    1.63737258066298   -0.48635938455606
C         4.27263341591983    0.26420944362893    0.16552250665074
S         4.48357217998660   -0.94658581181156   -1.24991364408935
O         3.25450343791495   -1.40626437285141   -1.86071187368937
O         5.55210057901007   -1.87818995826518   -0.94844718025599
C         5.23584823082533    0.34755073668341   -2.26405228270459
C         5.29279144106376    0.06066754529178   -3.74939276636442
O         6.48759641483107    0.67031039485299   -1.61741560840893
C         4.29080757428088    1.50441876500800   -1.95324925226413
O         3.61078548625563    2.18677622617501   -2.70287779605795
S         1.25451994696711   -0.43482681265218    1.29742819214120
C         1.45034808435192    0.55921416798291    2.75800512266571
O        -0.17524283367965   -0.67686609843402    1.26388653646004
O         2.25129340807886   -1.48854933743937    1.41793228648649
H         1.03580932524637    2.41170623973877   -1.03916509641852
H         0.35264770727196    2.08711857130942    0.57779848906754
H        -0.21515263950691    1.21197795258028   -0.90331584047705
H         1.87896778880478   -0.08879893148085   -1.01117764865719
H         4.66689465734721    2.46730354596553    0.00997122012147
H         4.86009022916274    0.18727329480613    1.07112269423738
H         4.32401313973153    0.45359403457312   -4.07482172612104
H         5.47929854713057   -1.01989055706693   -3.75640773463404
H         6.14895019102689    0.64425817805877   -4.10063171801117
H         6.92905960141049   -0.17939945323163   -1.39601670892074
H         1.58178330169072   -0.25440912734132    3.47234365572425
H         0.56629876748880    1.16098307491992    2.97116626074016
H         2.34828212661208    1.17681190372535    2.67470102386294
