30
 energy: -57.476263707616 gnorm: 0.133556188276 xtb: 6.4.1 (79825abcba525fcdf90b791dcacef51065a7a4e7)
C         0.53569279191254    1.77647189566241    0.33510716980921
C         1.66103396960141    0.86132245493620   -0.13022101309251
N         2.91926391817347    1.58623282789895    0.09607114688764
C         3.84391323952299    1.97147876896052   -0.94191760282085
C         4.28991051620003    1.00915014695032    0.15162119406565
S         4.46721141718051   -0.56973987138433   -0.84319059339383
O         3.17000843992476   -1.10599233348024   -1.19630044402287
O         5.53932951565346   -1.44635073550069   -0.41582958856584
C         4.97133816072781    0.36782220509737   -2.30470330938162
C         5.24404693964148   -0.53533685636934   -3.48864354357825
O         6.12394002886871    1.09049760635843   -1.81640473373255
C         3.79035151199240    1.33340789446138   -2.27373848929000
O         2.94141176162128    1.39073356851272   -3.14895260646889
S         1.79866530765174   -0.62554565463511    0.98373096255887
C         1.01463453004218   -0.39723526658758    2.56262969539977
O         1.06351196428970   -1.71398877430327    0.36828737849861
O         3.22008100975345   -0.80851262978256    1.23771957849152
H         0.68593884645048    2.76690827310933   -0.09820061768164
H         0.50986214889819    1.87452485123648    1.42291281543846
H        -0.44422263288576    1.33454231934157    0.12177318429173
H         1.54370937333232    0.45385850525853   -1.12838165194804
H         4.25539273848999    2.97646759044128   -0.90278536592853
H         5.05486114079548    1.11442368780728    0.90984573551533
H         5.56684953811379   -1.51852079834596   -3.13090837665686
H         6.02383927500216   -0.03240599314780   -4.07295885531197
H         4.33356812480261   -0.66605566241893   -4.08100792001212
H         6.75537177556432    0.44472059778768   -1.42887402751023
H         1.59302192662724   -1.07615831781187    3.19037895482854
H        -0.06789241896071   -0.51965112850666    2.61013173591775
H         1.28359715359807    0.58420143732345    2.96149456403978
