30
 energy: -57.474097587320 gnorm: 0.123388217769 xtb: 6.4.1 (79825abcba525fcdf90b791dcacef51065a7a4e7)
C         0.52743492926833    1.20212222031106   -0.38197460899908
C         1.76765335854414    0.34224139588628   -0.17488818560276
N         2.93381865137804    1.14092583787091    0.22761333215487
C         3.86927388106750    1.89422852416486   -0.57130471030571
C         4.34451514169802    0.66784407712408    0.19742410860723
S         4.86904292455243   -0.62037116257593   -1.05929858349018
O         3.88749827937649   -1.68355061968846   -1.09406038336654
O         6.24228389367016   -1.06203267257473   -0.91906448894191
C         4.93242252870084    0.62224352652249   -2.37119705608093
C         4.72125704480108   -0.05003402944196   -3.71106006154577
O         6.24178792658938    1.19316875757875   -2.15030582123824
C         3.82642260294653    1.61346759718173   -2.02150718486513
O         3.07235908071623    2.04239827461938   -2.88022213974308
S         1.44576031704583   -0.72536277766962    1.31749727646536
C         1.34167493204476    0.36116153045917    2.72048774737424
O         0.13844661255458   -1.27972673142173    1.02162373599943
O         2.58228707682157   -1.60422951528542    1.55054214642174
H         0.33026725684981    1.40612828561949   -1.43591965964419
H         0.67018932387532    2.14585370469869    0.14962185093034
H        -0.25202654581502    0.65425358232166    0.15962223692648
H         1.85793153797015   -0.47393032322270   -0.88328790240293
H         4.00668472559127    2.88737912446962   -0.15223506006708
H         4.91092507872741    0.74575821079864    1.11625247325391
H         3.72914369508302   -0.50186920584401   -3.60916449920186
H         5.45205261353462   -0.86239665188102   -3.80295526981577
H         4.75424328032850    0.60405820561749   -4.58743320648493
H         6.94035171911144    0.50370011632297   -2.20085939833128
H         0.44413847446588    0.96108449823699    2.56538016290923
H         2.16297185304401    1.07805126755427    2.69504850289908
H         1.27920477646430   -0.24369935575807    3.62872387761785
