30
 energy: -57.474310542632 gnorm: 0.129567239938 xtb: 6.4.1 (79825abcba525fcdf90b791dcacef51065a7a4e7)
C         0.76131083505832    1.32316025646657   -0.51625292172735
C         1.89546758978105    0.37346009808629   -0.15268774586961
N         3.09612436953743    1.11503272939483    0.25760376582552
C         4.08016576277884    1.83403415476031   -0.51408980086069
C         4.49917014476857    0.62128523114971    0.30718509279035
S         4.83443215687904   -0.71824205274440   -0.96058690076158
O         3.68384013469355   -1.58565086080863   -1.09744007688497
O         6.18036282327446   -1.24973268618572   -0.87990479648639
C         4.92901329110590    0.42882596251400   -2.35503131184589
C         4.58296324379757    0.00175585912750   -3.76557778013708
O         6.21436250875074    1.07946287937756   -2.23783364511570
C         3.90808120858314    1.48380606193602   -1.93938882813333
O         3.12904086333521    2.07150932617971   -2.67265939051389
S         1.42855516464925   -0.64053115007418    1.33876212125340
C         0.89663915950152    0.46793664655395    2.62255167109287
O         0.31683869905086   -1.39204647567464    0.78808900359469
O         2.54503715394036   -1.43537244946841    1.82876722937813
H         0.96960588429709    1.77755986841056   -1.48652499687598
H         0.62915657672454    2.11083033625243    0.22920923430570
H        -0.10552454783563    0.65751883472663   -0.59727943540628
H         2.02351977967791   -0.40190366550132   -0.90003656578817
H         4.20038168131497    2.87650771710782   -0.23187313126832
H         5.02114127179592    0.62142777351110    1.25517376520221
H         5.37904566724418   -0.62220556415731   -4.18480510292501
H         4.58329410680463    0.88831729369348   -4.41090609668084
H         3.67878766840058   -0.61257346369043   -3.81052936335304
H         6.90907935000370    0.49963364033653   -2.62134454160071
H         1.05696095418082    0.07154930333540    3.62590186863212
H        -0.11943802651746    0.78085239542459    2.38011081449284
H         1.62073390708208    1.28081619825718    2.52474721652699
