30
 energy: -57.478604923280 gnorm: 0.129053666964 xtb: 6.4.1 (79825abcba525fcdf90b791dcacef51065a7a4e7)
C         1.04572751707514    1.83791716036825   -0.64045202262000
C         1.79636997330225    0.57589750732614   -0.23515723708734
N         3.12200321188121    0.85847920707350    0.33290076704115
C         4.29307464850478    1.45382512254414   -0.26288978887549
C         4.34650301296030    0.01755594694100    0.24217786271088
S         4.55352761447026   -1.06406505265737   -1.27479828728135
O         3.28099421176879   -1.49593984391022   -1.81250799990472
O         5.48868307912653   -2.12082087324003   -0.94423415343882
C         5.29504483489544    0.28274441708424   -2.22634560815803
C         5.30385247841851    0.03830355954322   -3.72031747590428
O         6.59268744648354    0.41597098416208   -1.60380192565137
C         4.49727849631224    1.48334179364885   -1.72616683515717
O         3.91355024868161    2.27639411522622   -2.44749480856844
S         1.05547014080289   -0.23658943349584    1.26868470804903
C         0.95940284530489    0.96392017601589    2.57608627289233
O        -0.32082828029806   -0.62031366862426    1.01870864083409
O         1.93679477255014   -1.32091290297977    1.67601655705593
H         1.32642538368584    2.16981125052206   -1.64162571237462
H         1.27684696365504    2.69102124805711    0.00173170956297
H        -0.04553063440689    1.79456994286298   -0.73168825045501
H         1.79794704077788   -0.08918564538000   -1.09176595924174
H         4.79019536962559    2.24068010486192    0.29798405181454
H         4.80856235351032   -0.27097145672503    1.17726582191429
H         6.33423859745474    0.19111021957634   -4.05763216740858
H         4.64522856113147    0.70443832085250   -4.29033408790476
H         5.01905255105967   -0.99506486568171   -3.93939128041198
H         6.92545305978403   -0.49370177581406   -1.43743918929939
H         0.14494405419979    1.68884777370971    2.55011554783294
H         1.89126094445551    1.50616511016748    2.73954145759712
H         0.83558353361106    0.28015740616620    3.41976235594423
