30
 energy: -57.476057203439 gnorm: 0.124969356460 xtb: 6.4.1 (79825abcba525fcdf90b791dcacef51065a7a4e7)
C         1.12572454482107    1.85646531657172   -0.33233317805305
C         1.96169660835015    0.60884766897548   -0.07733809663924
N         3.28010453507972    1.03229853650261    0.41493794938908
C         4.37375341669878    1.60596541047259   -0.33048132349210
C         4.53449342486381    0.23727463942989    0.31887626476389
S         4.57390415661805   -0.85486455173066   -1.20416627015192
O         3.24761179661220   -1.24190135521843   -1.63560563124450
O         5.54597871063901   -1.91899507708076   -1.05178995437370
C         5.16862060672425    0.39537126225656   -2.36709730399818
C         4.87587550440075   -0.02044967733235   -3.79299144489809
O         6.53152922471939    0.70204696971790   -1.99613044255537
C         4.27299377914045    1.49301402827370   -1.80046078829950
O         3.36255312468449    1.97272875663299   -2.45693340195075
S         1.32171910655016   -0.47618093701555    1.29515958612175
C         0.53530806533727    0.51155711777581    2.54643186302733
O         0.22562907481067   -1.29378867257966    0.81138908150802
O         2.54092129207572   -1.03799404423789    1.85758450749779
H         1.59188639333029    2.56999381218232   -1.01414250030263
H         0.84139679453987    2.42584554868247    0.55567955275963
H         0.18107063862319    1.56890741065336   -0.80771389733317
H         1.94425736228641    0.01661045713134   -0.98567038415831
H         4.77338098468401    2.52805497156861    0.08291666911755
H         5.06759274815190   -0.05535152839248    1.21403628159798
H         3.83934657244223    0.20142491257432   -4.06722869640007
H         5.06282061219075   -1.07919381865138   -4.00875124748640
H         5.42769898053042    0.60291057890645   -4.50282767579299
H         7.04375054164347   -0.12793262327871   -1.87498077776138
H        -0.21751224930092   -0.17457179855506    2.93633737310034
H        -0.03417317980702    1.31316092303366    2.07502001179053
H         1.19635444456954    0.96839918592854    3.28735364655815
