30
 energy: -57.474939676638 gnorm: 0.123223554509 xtb: 6.4.1 (79825abcba525fcdf90b791dcacef51065a7a4e7)
C         1.01146456963526    2.10890873375942    0.07440159058118
C         1.91805036631022    0.88558392925320    0.02967753620178
N         3.28577445422051    1.18089690476156    0.47908446453974
C         4.28150441095367    1.65874937166287   -0.44881138472030
C         4.49689816224194    0.33902062202561    0.28107834665868
S         4.55034436038327   -0.91657535789606   -1.10982130509478
O         3.28734246450995   -1.36291818018124   -1.65808506145208
O         5.56352116980258   -1.91636304800820   -0.83702358538468
C         5.15073163934395    0.34427305736938   -2.25829081882119
C         5.13851099392580   -0.22860633720979   -3.65951910180812
O         6.45544778880291    0.82525616573316   -1.86388326302112
C         4.16834812684471    1.45810059629268   -1.90849822077065
O         3.32560756379463    1.89667282877209   -2.67493640926597
S         1.20579564624556   -0.47949060396927    1.07842581336627
C         0.95079624298687    0.21017116078380    2.69678703752151
O        -0.08065817625874   -0.78654403090367    0.48287193592303
O         2.25134170949953   -1.48271640846985    1.21547011719354
H         1.01989253370244    2.55908560495912   -0.91986370757376
H         1.40845983170302    2.86729147288774    0.75326321415636
H         0.00957560616851    1.76610001406843    0.35679858293110
H         1.78775749770217    0.39662377964799   -0.92951919951951
H         4.87066915032767    2.49992620519260   -0.09362752738735
H         5.11506698061069    0.37447389965919    1.16862928715410
H         4.30235387616734   -0.89587525182164   -3.89280026501304
H         6.06391707951518   -0.72203342655314   -3.97982084602626
H         5.06583994507217    0.60969275497348   -4.35875309966281
H         7.09254085554696    0.07710968894158   -1.84646725489458
H         1.03190629449435   -0.62814147235559    3.38974498127409
H         0.01874918807839    0.76910182797321    2.78618211636875
H         1.83156414241302    0.85590953190100    2.74062701933600
