30
 energy: -57.471540715203 gnorm: 0.135105456262 xtb: 6.4.1 (79825abcba525fcdf90b791dcacef51065a7a4e7)
C         0.47680343047681    1.44690074534648   -0.17297057047133
C         1.75539340742330    0.62180141805200   -0.10339760357074
N         2.95262108599389    1.36276582099788    0.31786618962282
C         3.89517427402050    1.85969776569445   -0.65448351998340
C         4.29750448585836    0.72659878216868    0.28094929908202
S         4.67373876986096   -0.60527368898894   -0.98338574409605
O         3.64726643220304   -1.56780762151474   -1.32231319786205
O         5.96414128379085   -1.12942661294519   -0.58257864742370
C         4.94008467939266    0.49917956673651   -2.38995202472149
C         4.97638910265966   -0.25707798916920   -3.70088197749708
O         6.12575054320010    1.27127172956674   -2.09455999438197
C         3.79539227994067    1.45683828106425   -2.07275631633203
O         3.00140393718545    1.89165923970398   -2.89159573759412
S         1.58528616433238   -0.71961655523943    1.17811304722008
C         1.31463645300526    0.20885128176275    2.66957116200811
O         0.44723793258959   -1.56595131680660    0.87398583814786
O         2.78916434828362   -1.48407603203814    1.46912636893669
H         0.42847553061254    2.18740616429278   -0.97335164558998
H         0.31884392121743    1.97320044208059    0.77130700736225
H        -0.30546948566407    0.71557447060786   -0.40590476665221
H         2.01173393328466    0.04193583959803   -0.98326240537569
H         4.08578501269536    2.92918105037318   -0.62761067666631
H         4.83422449436171    0.91403778149732    1.20178290956114
H         4.10845197799857   -0.91180156899866   -3.83068495567390
H         5.75470795592945   -1.02501215896464   -3.61759454207907
H         5.17854641403941    0.46349112271578   -4.49892158165006
H         6.89129830394746    0.71312534912333   -2.35594723184687
H         0.32811393371860    0.67332829551501    2.64565368645473
H         2.17927034537813    0.85223615079040    2.83561581129034
H         1.24965556162575   -0.53312841046741    3.46950597225605
