30
 energy: -57.475485220933 gnorm: 0.134529056387 xtb: 6.4.1 (79825abcba525fcdf90b791dcacef51065a7a4e7)
C         0.56670802735644    1.33874572849282   -0.49599241164789
C         1.80888578056356    0.49566408623259   -0.23786580891886
N         2.96215340685108    1.31082025980467    0.16875439934381
C         4.05269841936996    1.83439261443763   -0.61699047597901
C         4.28602482046078    0.64497736839158    0.30586769717959
S         4.58949093494267   -0.68550670104309   -0.97931721088926
O         3.49661977916656   -1.45931544139036   -1.52871824815806
O         5.85007163203811   -1.28520568452233   -0.58967802803290
C         5.09026895520336    0.46150296157282   -2.28422182273523
C         5.10810758814551   -0.15581456960285   -3.66638740506695
O         6.36411535751296    0.96136212321375   -1.81877315344153
C         4.03493398684473    1.54149951794253   -2.06531648693384
O         3.11685818913196    1.79520965257961   -2.82869888495450
S         1.44885855801752   -0.57153785163217    1.24607104710463
C         1.28057599618450    0.37232707112967    2.74291809626600
O         0.19333487460877   -1.23346963316854    0.94701208221790
O         2.65912858344358   -1.36630360889787    1.39440710316348
H         0.60113067849436    1.79974332381108   -1.48472393942638
H         0.57570115754816    2.19507730231629    0.18240134405252
H        -0.29565661262551    0.66393350486910   -0.45123673447889
H         2.00635318759322   -0.22483891584148   -1.02399470193737
H         4.13535196821859    2.86442350358842   -0.28075545760972
H         4.72556535151355    0.57993478159981    1.29263514620868
H         4.46131524790474   -1.03926087478303   -3.66339988407944
H         6.13992690047270   -0.47533191220898   -3.85532521844673
H         4.72127129327042    0.48892138679401   -4.46113759238260
H         6.98840025920215    0.21514330824288   -1.67970523697588
H         1.63196541736816    1.38822166490669    2.55846953546418
H         1.75961202465726   -0.10099023083069    3.60059046826562
H         0.19503872414964    0.37876157249278    2.87027393062735
