30
 energy: -57.474733316685 gnorm: 0.124605655365 xtb: 6.4.1 (79825abcba525fcdf90b791dcacef51065a7a4e7)
C         0.46357419423796    1.57113012066993    0.03225978002556
C         1.75011321451084    0.79525264458539   -0.21924185070598
N         2.89792789121109    1.63601386590733    0.14884482414964
C         3.79925353726996    2.11662065028954   -0.86970349971467
C         4.30258351918854    1.14619600033694    0.19131111256617
S         4.43015553347321   -0.53168461927502   -0.63477713389760
O         3.23079237056618   -1.19788824951498   -1.09595991510883
O         5.61792984325771   -1.27483272788220   -0.26404227932124
C         4.82295440565073    0.31912167737797   -2.18107061595692
C         4.77407341897867   -0.57402151878582   -3.40241689281662
O         6.15223219344593    0.84889308140514   -1.97723459287324
C         3.82865905666816    1.47628029643074   -2.20118751619684
O         3.09301016498061    1.79590686304869   -3.12132026070800
S         1.94183574430186   -0.69206340584668    0.88608236174924
C         1.21736581429663   -0.33995299109971    2.47066832559817
O         1.15367218013997   -1.81535645383308    0.41603918083818
O         3.32311547787318   -0.87892072638806    1.30508160802561
H         0.40844647245075    2.44308112256411   -0.62192377122656
H         0.32369815789505    1.90777470006312    1.06216649891922
H        -0.37951085964104    0.88324037098550   -0.09836435176996
H         1.69585712324218    0.48909042743724   -1.25820169994886
H         4.00971994525039    3.17879086451236   -0.77833853809054
H         5.02148290671311    1.19522361286470    0.99872450714089
H         3.77427330071366   -1.01850624044059   -3.36167764107847
H         5.56420469022753   -1.33193647901464   -3.46322322531215
H         4.88259287351204    0.08645841569227   -4.26783264089126
H         6.73408739511328    0.05748829855112   -2.00943766246866
H         0.16907857456636   -0.03896126329441    2.46471303526441
H         1.81738570731266    0.48447993475097    2.85718244131994
H         1.42494214532682   -1.20214268228127    3.10956822666776
