30
 energy: -57.474242232324 gnorm: 0.132933164729 xtb: 6.4.1 (79825abcba525fcdf90b791dcacef51065a7a4e7)
C         0.49597155581871    1.40570277268555   -0.29459403805941
C         1.68615113166594    0.45750812288376   -0.22515987075868
N         2.83649727717788    1.22946525929083    0.26538213381921
C         3.75655213841668    1.81295784082256   -0.68005285196547
C         4.22359577412498    0.69093203353338    0.23850352274681
S         4.59518429591635   -0.68410787739145   -0.98017068741283
O         3.51251991272253   -1.51420517347960   -1.46366335805219
O         5.84709476007870   -1.25805610337959   -0.52870098956743
C         5.00965688162687    0.48312916924700   -2.29734796852370
C         5.13853776616375   -0.04694319998455   -3.70950725331840
O         6.17371033931170    1.17322695512294   -1.78947899552519
C         3.85586250318060    1.46429561314958   -2.11264561121651
O         3.11099200463178    1.90519457772585   -2.97332023122964
S         1.54789037924783   -0.71169128269396    1.21860773744646
C         1.68761201658586    0.37957980343662    2.61480126982809
O         0.25223738590111   -1.36174772913237    1.16723066430785
O         2.66583032149743   -1.64348109316466    1.19891605216271
H         0.34809800510877    1.90403331356688   -1.25433036278738
H         0.65420244727819    2.14440749339517    0.49463409333462
H        -0.38666305726616    0.75715042208736   -0.33178763677467
H         1.92714246399857   -0.24157919602448   -1.01845472768530
H         4.06461898509146    2.84178901867942   -0.51437143344097
H         4.74469960907871    0.89453444051867    1.16485827486978
H         6.02338832305353   -0.68902142085405   -3.76952126393759
H         5.28127545477260    0.85795776923729   -4.31218470543876
H         4.23914250651993   -0.56577930295287   -4.05425629025319
H         6.72090117328096    0.54092700361328   -1.27305571328712
H         0.94801706231650    0.19365406482722    3.39452464787678
H         1.59897573324085    1.39472570873321    2.22656283374398
H         2.67743942868615    0.20156176685320    3.04282387837493
