30
 energy: -57.476830684716 gnorm: 0.129066720585 xtb: 6.4.1 (79825abcba525fcdf90b791dcacef51065a7a4e7)
C         0.67526432736473    1.90556234442651   -0.17796233379949
C         1.77611126067985    0.85335976077384   -0.21574228917609
N         3.04186774506859    1.39521301492834    0.29816563293821
C         4.18860764041249    1.77374725027496   -0.49082796809446
C         4.25356319050535    0.53671586230465    0.39593647839408
S         4.26134022389491   -0.74749656041146   -0.96961020103186
O         3.01752549248637   -1.00655739836362   -1.66300852097808
O         5.06495926395724   -1.91252409605963   -0.65747475621435
C         5.18755276940195    0.27641578593391   -2.13705170490506
C         5.16484733940668   -0.24707542674418   -3.55734120424056
O         6.46316436137366    0.39144108559203   -1.46714831690371
C         4.27403931786059    1.48203104408800   -1.93697915572711
O         3.64508326022082    2.08682220941069   -2.79057543824347
S         1.53118240624977   -0.55576135751104    0.97798955327170
C         1.65296994026012    0.19336137272844    2.58538932664046
O         0.15939624287317   -1.02064489400157    0.90042869586731
O         2.60670769062775   -1.49825609813164    0.70714133926596
H         0.65232502961333    2.58673124787960   -1.03047418098914
H         0.66056808337284    2.42196341502931    0.78469891629361
H        -0.24603112116081    1.33586115486712   -0.34440340751153
H         1.91389103520076    0.41434925933217   -1.19778256844306
H         4.54685865099266    2.75522716925650   -0.19215989354852
H         4.75756494644473    0.37736531838715    1.34024895358136
H         5.45954276815485   -1.29565827291610   -3.66894429428133
H         5.84166325222346    0.35907472864841   -4.17129733629645
H         4.19610874328012   -0.13566337402231   -4.05341329538846
H         6.72302779022282   -0.45219185696411   -1.03509681510975
H         1.73272151984452   -0.43998779808909    3.46972305107432
H         0.69682781285992    0.71640721264392    2.62174815685546
H         2.45863832810225    0.93001462189983    2.53160717562713
