30
 energy: -57.476732758992 gnorm: 0.142217957639 xtb: 6.4.1 (79825abcba525fcdf90b791dcacef51065a7a4e7)
C         0.30153817301318    1.12253000920633   -0.08823319043380
C         1.66709003865854    0.44931200299436   -0.13790449964755
N         2.73086219979588    1.44178817990289    0.07000261443067
C         3.63184449067201    2.02609138632158   -0.89313419084153
C         4.15909534770558    1.02782818204588    0.12975121951532
S         4.45018675774044   -0.51889762663301   -0.88852414251485
O         3.29349903819638   -1.30816798846129   -1.25474082851450
O         5.69835318820483   -1.13603835277698   -0.48635608006036
C         4.88186463917748    0.47513271221078   -2.33584709483317
C         5.00223988822007   -0.32256794021837   -3.61684838792594
O         6.11638008102697    1.08801264707808   -1.90048964502834
C         3.79887051678538    1.54854958562646   -2.28158875301809
O         3.01551015970578    1.90131514374165   -3.14870336997551
S         1.94715365839216   -0.73391709622950    1.27352791725457
C         1.32588651539341    0.11962543316163    2.70364797735217
O         1.20620509417047   -1.92826762804019    0.91512632909964
O         3.37596946586817   -0.97944678072529    1.40240883006231
H         0.04805706818920    1.42155233578819   -1.10687282594167
H         0.24608289794122    1.90734859450248    0.66978212758609
H        -0.37362912447637    0.28879341548578    0.13555194881757
H         1.71802782032881   -0.00975829872285   -1.11911621431922
H         3.87316754253925    3.08551360718134   -0.90852397487474
H         4.74208217274952    1.31524783766433    0.99499833435907
H         4.27577160703347   -1.14021433066860   -3.56660052394606
H         5.97799907939288   -0.79097634845316   -3.79271051368211
H         4.80735422794496    0.28146581949414   -4.50798105473522
H         6.76598714215656    0.36997949047340   -1.73210586889744
H         1.40153766409780   -0.50956519411494    3.59130426289018
H         0.32286822945680    0.44645075715538    2.42752081688443
H         2.05307223690506    0.93551451763642    2.71698997088993
