30
 energy: -57.461140002039 gnorm: 0.138775078961 xtb: 6.4.1 (79825abcba525fcdf90b791dcacef51065a7a4e7)
C         0.69154432542175    0.55938530162985   -0.44089394471480
C         1.95531099524931   -0.03820356044645    0.16425309037543
N         2.97706133866035    1.00792660430521    0.31082633594380
C         3.51182378426066    1.83745953639826   -0.74117922164943
C         4.44045278070559    0.92719004340503    0.05246723513177
S         5.01407050756326   -0.27546023102826   -1.26608303843719
O         4.22906912135198   -1.49052101950714   -1.21720628291389
O         6.41388519834318   -0.56093365253313   -1.51010149306429
C         4.60579874113740    0.77793768377651   -2.67776743492832
C         4.55674762196553    0.01906902159178   -3.98677209153051
O         5.56167669541011    1.84521577400979   -2.48697667061993
C         3.34810102365881    1.47216652659593   -2.16367914997812
O         2.36606534937323    1.54266848351401   -2.88521923546433
S         1.81910110417517   -0.88500160923828    1.81803303143357
C         0.65340668018728    0.17390231561771    2.64242983416520
O         1.27640419731375   -2.22578512318251    1.70982349123690
O         3.07885421440766   -0.69920137494617    2.52295154001681
H         0.77128825412760    0.67027648273992   -1.52377795805814
H         0.61306019800082    1.56903562744419   -0.03095591530889
H        -0.10951634930792   -0.07184418587373   -0.03977238155713
H         2.22187024006037   -0.89963029957909   -0.43824730662158
H         3.62346595462813    2.89170695241009   -0.50254216739194
H         5.11445271834042    1.16412634662992    0.86531511527531
H         5.41643545509619   -0.65084316904849   -3.88198126564374
H         4.53787398583742    0.57727610511252   -4.93042910559202
H         3.68085333573229   -0.63526692318128   -3.94666843368605
H         6.35362636271699    1.51927778071578   -2.96915318681691
H        -0.36999958226209    0.10696024332725    2.27135571271516
H         1.14887688062230    1.13299342982819    2.48828640074643
H         0.63858364393957    0.06488798824917    3.72988017064546
