30
 energy: -57.475528129153 gnorm: 0.122466473357 xtb: 6.4.1 (79825abcba525fcdf90b791dcacef51065a7a4e7)
C         0.51506984320277    1.26586569640858   -0.38447552777639
C         1.76442411591257    0.41581203237058   -0.19226665118127
N         2.86650739366263    1.30554959146387    0.19968398221538
C         3.84513601166599    1.94379338871383   -0.64633159430543
C         4.25213154973498    0.76321968645417    0.22626077120551
S         4.56255213013447   -0.64435106162025   -0.97222304140102
O         3.43991790230330   -1.42203464152617   -1.45169094433787
O         5.75323424213678   -1.33196358916836   -0.51398033742006
C         4.93020668252056    0.48812682759472   -2.33292499259176
C         4.83750728898438   -0.26584874525661   -3.64239378061825
O         6.15179830469825    1.21324828969323   -2.06628089447964
C         3.88070531176193    1.56501550722401   -2.07427147106234
O         3.12080499374114    1.97352389350359   -2.93778586049320
S         1.77211268721196   -0.73185477835695    1.27518350392517
C         1.23943698344943    0.35783158829919    2.57464158972251
O         0.72426016546676   -1.71943605721467    1.10020356947550
O         3.13527024535099   -1.15672880396523    1.55748345558871
H         0.62219754049902    1.75255828552398   -1.35553047642710
H         0.47145266053394    2.01104342532155    0.41327783038205
H        -0.35161816302623    0.59633734291668   -0.42486194686812
H         1.81130676865524   -0.34896475656077   -0.95975284732320
H         3.96835730711132    2.99556967090016   -0.40254397662505
H         4.85342669930267    0.79291271552082    1.12553763162005
H         4.43443821483053   -1.27331525032876   -3.49619804428745
H         5.70940286607450   -0.10601609466109   -4.28791027856285
H         4.06365986888095    0.25141088257347   -4.21733489116305
H         6.84675254938639    0.70284736611127   -1.59464169046680
H         1.09917873444998   -0.25643336263789    3.46489088991290
H         0.36069214673036    0.90988024677692    2.23974388362008
H         2.02913759337688    1.10071418116313    2.71302685030807
