30
 energy: -57.472017785883 gnorm: 0.132359046138 xtb: 6.4.1 (79825abcba525fcdf90b791dcacef51065a7a4e7)
C         1.01795937797137    1.80595369058888   -0.21612210233091
C         1.86670495533493    0.54146318115922   -0.18271134623166
N         3.16177019755237    1.00272527112415    0.33679717901640
C         4.26306182625531    1.63270033597122   -0.34956979117235
C         4.46502594331324    0.28421394301759    0.32985054675711
S         4.69859462727932   -0.92068740555359   -1.08706095967272
O         3.49395171836563   -1.57551100418606   -1.55077460721906
O         5.83083874687989   -1.79481757525580   -0.85373510685814
C         5.12452371283847    0.35782822367810   -2.29253515621653
C         4.83518549295560    0.02723461101356   -3.74124910524153
O         6.49209994244962    0.80508354521594   -2.15511523106294
C         4.22594692742754    1.49708107805214   -1.82061705622445
O         3.65416880383258    2.16696185478118   -2.66578817107425
S         1.15773482525195   -0.49645596318772    1.19231351623233
C         1.02513751765092    0.58983666595446    2.59307665777548
O        -0.22806322498382   -0.79896177591570    0.88902542684331
O         2.13154180544179   -1.53523883705384    1.49404159840986
H         0.76704478403641    2.15221863379202   -1.22033133840471
H         1.37179033794434    2.64152795573277    0.39233662808249
H         0.00985982438413    1.62503074989861    0.17381322473872
H         1.83963875175591   -0.07534317478739   -1.07430201713732
H         4.73263630986317    2.48446152475887    0.13504543721332
H         4.91048169317117    0.00205855988354    1.27488701620263
H         3.81804940240739   -0.36899803193434   -3.82645765381531
H         5.54956060317758   -0.68185350459482   -4.17633779611154
H         4.93160058886556    0.97178694747990   -4.28482950022029
H         7.05504885303130    0.00234310533089   -2.08721564410867
H         1.82615949387811    1.29684088819471    2.81227165290872
H         0.94310198507435   -0.13079324536716    3.40736738301835
H         0.08581077014500    1.14611791859418    2.53951818815709
