30
 energy: -57.471861385737 gnorm: 0.136534879848 xtb: 6.4.1 (79825abcba525fcdf90b791dcacef51065a7a4e7)
C         0.51117973447381    1.17088429803705   -0.54402127750801
C         1.76193139140810    0.34575446894235   -0.26979020252331
N         2.84599024352950    1.25688571619310    0.12327694521134
C         3.92091917023802    1.93364851566149   -0.56033971834297
C         4.21956184124835    0.71174017116383    0.29906124584458
S         4.65852169009424   -0.62731444081439   -0.93715338972381
O         3.53730608387004   -1.49353521446701   -1.23300129289322
O         5.95440488465543   -1.23439520404265   -0.70767362912791
C         4.91789587236881    0.53469316658530   -2.29790656031021
C         4.79904024017700   -0.04721499062670   -3.69039967714864
O         6.18649489304457    1.16753714380240   -2.01621288691921
C         3.86445510917886    1.59697097873599   -1.99811926069800
O         2.96050211636507    1.86812721413119   -2.77228205199042
S         1.65133260610857   -0.69959827540945    1.26826497979857
C         1.52086885709037    0.48252490093403    2.58936872483157
O         0.42369304517645   -1.46627529760374    1.17320122070569
O         2.89420019562805   -1.45659203940080    1.29376642979550
H         0.58285148021257    1.93791526139394   -1.31720973408037
H         0.16824992403242    1.64150332981601    0.38038101247395
H        -0.24801883818390    0.41226795245086   -0.76575567462631
H         2.09141554374689   -0.42318777752936   -0.95992398985218
H         4.23481662126272    2.90558819560899   -0.18932655359079
H         4.57548175387614    0.56309322764154    1.31018010687857
H         3.77853466158830   -0.40453325369605   -3.86279066912267
H         5.46396991155890   -0.90684192707866   -3.83651601924341
H         5.00386744247041    0.69740352310312   -4.46534723627290
H         6.88630229337951    0.47766949896836   -1.99989483192917
H         0.49830635364609    0.49561902623146    2.96848888176828
H         1.76757693971959    1.52317085406426    2.37653591417880
H         2.10606722598815    0.08500242218411    3.42253787240684
