30
 energy: -57.471827324312 gnorm: 0.132986150541 xtb: 6.4.1 (79825abcba525fcdf90b791dcacef51065a7a4e7)
C         0.52756306599723    1.33768697427404   -0.41584691106064
C         1.66038484379853    0.33791941924227   -0.22193643676107
N         2.82841541707733    1.13783475536406    0.17263366615724
C         3.88249055284582    1.77334263117940   -0.57960777555167
C         4.17431992683166    0.50388123623158    0.21040542413112
S         4.61561908192711   -0.73054156836117   -1.12953301559155
O         3.54306880185355   -1.59890053736692   -1.56608478227322
O         5.87112216833224   -1.39547987886995   -0.84301894955513
C         5.00995437214438    0.59167846398953   -2.29804476190077
C         5.23525893437651   -0.02564596345417   -3.66183699411956
O         6.22504110939018    1.20982416816559   -1.81778815263280
C         3.89706359408426    1.60500438733851   -2.04766765052781
O         3.12897852064651    2.08395136447966   -2.86659369719842
S         1.52619827517375   -0.66043010423786    1.34519482363943
C         1.32650332714407    0.49850222722854    2.67814226365058
O         0.30330321543501   -1.43344448789567    1.24076254005550
O         2.81801606232730   -1.28483052497873    1.58961382287750
H         0.41497536092260    1.55680271459748   -1.47914650697556
H         0.70786825999028    2.29295618333237    0.08270448809419
H        -0.48035599419460    0.97789647782248   -0.17984406944077
H         1.75975138462686   -0.38559161919774   -1.02366875157359
H         4.26427787906071    2.75582827101115   -0.31539288476578
H         4.57253161827537    0.32168075170916    1.20003499366109
H         6.15493305788822   -0.61657751511185   -3.72369197535416
H         5.43006406603317    0.65760270501095   -4.49709871394363
H         4.37352121033252   -0.69478826069016   -3.74314698108328
H         6.89064932855573    0.48674407059578   -1.81187927406742
H         1.92573066281220    0.11458155459845    3.50462223331829
H         0.27425826405237    0.50892276261005    2.96411153243252
H         1.70446033814093    1.49419710050720    2.43239381964248
