30
 energy: -57.479786619137 gnorm: 0.121609438080 xtb: 6.4.1 (79825abcba525fcdf90b791dcacef51065a7a4e7)
C         0.58208675834441    1.79089875812119    0.07538610104614
C         1.76867003080510    0.88339306493696   -0.22273330730995
N         3.04732625220185    1.49367162191442    0.16770731106146
C         4.16452508131008    1.87222212865071   -0.66258067688866
C         4.27134375996801    0.65034832668865    0.24098540129789
S         4.21626949979425   -0.81997132083983   -0.92052507854054
O         2.94233661954439   -1.10011652031151   -1.54790258117402
O         5.08512215655157   -1.91478376527942   -0.53711662874675
C         5.05238618755434    0.22399840818152   -2.13716879114354
C         5.08792359747038   -0.36142754852391   -3.53280283665492
O         6.35772891664183    0.41848928181552   -1.54772841183205
C         4.31384079729214    1.55858907113206   -2.09892639647184
O         4.01139415447758    2.22365202200977   -3.07678224798362
S         1.61237401453522   -0.52053781174572    0.99182745729080
C         1.26002826878890    0.16238665484796    2.59470541477699
O         0.47721252427509   -1.30787058975590    0.54973566410838
O         2.91702971924589   -1.15593833258363    1.10385155101393
H         0.64449790251756    2.59580597615754   -0.65913615774684
H         0.76334759948135    2.19538964374418    1.07395224966690
H        -0.40133305267451    1.31523130585451   -0.01221140338849
H         1.74329590720781    0.50380898773377   -1.23830640352280
H         4.60678785312930    2.82581974660451   -0.38707324214436
H         4.67561887275591    0.66366602638319    1.24473862870962
H         4.89074866806028    0.43552337693363   -4.25724600249364
H         4.36287565888648   -1.16277049725548   -3.71879984778571
H         6.08033379594811   -0.79702707956052   -3.68223402296094
H         6.66668267957427   -0.48558387821793   -1.31726510136515
H         0.46777166597294    0.89488656028017    2.75379968573537
H         2.13705035885545    0.72617521887410    2.91420720157196
H         1.12979379492588   -0.69506593733934    3.25988667923854
