30
 energy: -57.470179172440 gnorm: 0.138104944766 xtb: 6.4.1 (79825abcba525fcdf90b791dcacef51065a7a4e7)
C         0.22311149818389    0.64355885104991   -0.07543349446604
C         1.70640499159153    0.29976739082837   -0.02994210797408
N         2.58124384445640    1.47780383412576    0.05211070003936
C         3.28195823269941    2.04355170885535   -1.07471693780734
C         4.05481233364314    1.27837295289367   -0.00793885061549
S         4.64175377652706   -0.26045590848114   -0.90319585308726
O         3.79495247802292   -1.42795773922184   -1.02508057577379
O         6.05661041722531   -0.49494652960076   -0.69411189430968
C         4.63959849497723    0.64138338929020   -2.47031648387696
C         4.81672338282088   -0.40471574604633   -3.55017027913880
O         5.67176502229565    1.63977304159245   -2.30588819232231
C         3.31648589624897    1.39833943877154   -2.40372366578239
O         2.49775507369533    1.25843053556960   -3.29820122612390
S         2.16454960688374   -0.77973781943729    1.41760071288669
C         1.44571540780392   -0.11715631683109    2.90219299511586
O         1.60033342819347   -2.06879872674085    1.06558970902251
O         3.61945680345735   -0.79762290886821    1.45413699849888
H         0.07697847529703    1.17322513309874   -1.01850957785094
H         0.01222109663349    1.29268443591844    0.77765731898359
H        -0.46343474995604   -0.21043578770966   -0.05556443281870
H         2.03086762934442   -0.34877623717760   -0.83631161739371
H         3.16536371532577    3.11714090235247   -1.19579984072123
H         4.59696051367427    1.65616811282131    0.84908065273917
H         5.82716366665266   -0.80961711128566   -3.43230616971153
H         4.95950758361985   -0.01378600214453   -4.56467830297168
H         4.05947726458738   -1.17856162803954   -3.39302225849975
H         6.57309723020919    1.27980689358036   -2.15116693630880
H         0.35578865712767   -0.08585557224075    2.87734214538272
H         1.92150707266567    0.82744167661191    3.16764281273804
H         1.70302585233168   -0.82244223885740    3.69655763683352
