30
 energy: -57.474065878017 gnorm: 0.124488447564 xtb: 6.4.1 (79825abcba525fcdf90b791dcacef51065a7a4e7)
C         0.60639567504980    1.12490020719163   -0.74186482946256
C         1.70859684196451    0.22451663572403   -0.19883298639836
N         2.86142771697705    1.02690481545842    0.23360195567178
C         3.78316179254748    1.76981742794182   -0.59059377023727
C         4.28592877562730    0.59616998436794    0.24042614088505
S         4.84874013688423   -0.63189209610307   -1.05922254421633
O         3.82241020915072   -1.60510953248266   -1.36660428193388
O         6.20095589865817   -1.08809610872988   -0.80641493745278
C         4.86051482035136    0.58408346454195   -2.39729975857157
C         4.83045251379166    0.00533044852456   -3.79584259020454
O         6.11568880037128    1.22120704757641   -2.06897351655506
C         3.82664281370837    1.65533116102325   -2.06326225959806
O         3.09541482943520    2.14904929321118   -2.90678625043005
S         1.41239336044375   -0.68721478682276    1.39854533277428
C         1.53434594479372    0.45534109865399    2.75480663338416
O         0.08693835473903   -1.25911015966972    1.54008817927836
O         2.52433417522907   -1.59474209506145    1.64018874276728
H         0.86223972260779    1.43082633620314   -1.75786028319078
H         0.54375553912525    2.07740084671110   -0.21043141546696
H        -0.32604998434238    0.55230460502514   -0.80291193596308
H         1.92867574490126   -0.62410523546245   -0.83720810021447
H         3.92589042151839    2.77569629090530   -0.20499620359503
H         4.94034301729802    0.69469716124487    1.09668007720373
H         3.77869079208011   -0.16524320132957   -4.04789127916566
H         5.39089885261495   -0.93673879778313   -3.82491765331843
H         5.36918426671716    0.67259231856604   -4.47516896834581
H         6.70584474908611    0.54848995292669   -1.66267103007273
H         0.70621173616651    1.12337679923937    2.99451407600706
H         2.45835522085205    0.97414702927477    2.49760253721539
H         1.64495236542771   -0.18791577230924    3.63152716932153
