30
 energy: -57.465401193255 gnorm: 0.144281334528 xtb: 6.4.1 (79825abcba525fcdf90b791dcacef51065a7a4e7)
C         0.62874825293381    1.86406407151208    0.15636511352195
C         1.73925656060230    0.90457066687072   -0.25175902883226
N         2.97143344475884    1.60669407137816    0.13373855298629
C         4.10467708975529    1.96780377349275   -0.68245410701398
C         4.19366991773088    0.76545801894557    0.24881514660225
S         4.23612808207252   -0.74255943075374   -0.86386643380288
O         3.01864684948593   -1.15101106945569   -1.53162054680975
O         5.15474522982579   -1.82521356669389   -0.57313661451569
C         5.09893421001552    0.17890070787376   -2.15834031680357
C         4.86860938905245   -0.48676863536859   -3.49834615465302
O         6.42202351421269    0.36647279347168   -1.60748851681192
C         4.42091843077856    1.54236278279143   -2.06185300290864
O         4.14270586631942    2.28617711988298   -2.98884962918097
S         1.63417945448591   -0.54591945873816    0.91256283630542
C         1.21505012701562    0.03657724823201    2.53884057725110
O         0.56960256225323   -1.38767640583684    0.40065371516375
O         2.94294737781917   -1.12871164964392    1.16925235998658
H         0.19930059265854    2.46698415325252   -0.64572952676347
H         1.08536759078393    2.53800211528224    0.88500015043870
H        -0.08874550052875    1.22094447873570    0.67852148821826
H         1.54058391805641    0.42577860483619   -1.20433657657448
H         4.57345981552754    2.88202582869943   -0.32849094518010
H         4.70640443661887    0.68874286445622    1.19873848847838
H         5.54758426459157   -0.02322628655362   -4.22149775743021
H         3.88741628293667   -0.47064709493626   -3.98767233231474
H         5.14475475866324   -1.53670571986541   -3.36295602676056
H         6.55469615039924   -0.51872318465370   -1.20160664262911
H         0.13651859450068    0.17798359402106    2.61828616829273
H         1.64592619502659    1.01798683934653    2.73955856800179
H         1.62009013320882   -0.63021973970385    3.30433156417487
