30
 energy: -57.474748740768 gnorm: 0.125651389189 xtb: 6.4.1 (79825abcba525fcdf90b791dcacef51065a7a4e7)
C         0.54502133114729    1.38166109301134   -0.52172385061947
C         1.76063382645834    0.52547976993557   -0.19057216535885
N         2.96391267329020    1.18862217288920    0.33116311416949
C         4.01005180047843    1.71744584908538   -0.50952129603921
C         4.27034326544329    0.47587138399704    0.33401807083933
S         4.79326197815457   -0.74351254416946   -0.99023207957572
O         3.80815556532541   -1.69976159935750   -1.44864450357429
O         6.08454199897011   -1.20335788290646   -0.51942486121428
C         4.99491556503437    0.46217513831224   -2.32246287126083
C         4.82312070646044   -0.12986246528223   -3.70512654972293
O         6.31644373982320    1.03472043580523   -2.20022758263670
C         3.96639632769798    1.53438249466285   -1.97524020843690
O         3.26285377547805    2.04530805765081   -2.83195936267417
S         1.38884862125486   -0.59075852724740    1.25386406408544
C         1.07681036224248    0.57156985473802    2.56205975143513
O         0.21616771246798   -1.42060497927921    1.05360418745737
O         2.62052275764289   -1.31245326921056    1.53766901275097
H         0.58392126624600    1.86923850267890   -1.49745372661283
H         0.44821875759139    2.11397223841805    0.28323103564665
H        -0.34210168446382    0.74546031976836   -0.42524222110288
H         2.00857592289990   -0.14177981769444   -1.00874451057285
H         4.44081168055452    2.58743501467751   -0.02124480742649
H         4.80990273933495    0.58771581389456    1.26541630984574
H         3.78450882499937   -0.16752169044458   -4.04964617708676
H         5.14653631348898   -1.17586903570230   -3.64419607381782
H         5.45982629390402    0.48816853694318   -4.34512522809499
H         6.86201833113739    0.33624937497026   -1.77549168073619
H         2.04450254469227    1.05846329564075    2.68872561172591
H         0.69713524294094    0.05735131159265    3.44553741200380
H         0.37423374137441    1.27922729924059    2.11455655191192
