30
 energy: -57.475627493312 gnorm: 0.128145870946 xtb: 6.4.1 (79825abcba525fcdf90b791dcacef51065a7a4e7)
C         0.86165370120395    1.48738828519572   -0.49795933057699
C         1.94314028988183    0.47715331173430   -0.13708030818462
N         3.07277609276347    1.27641127694313    0.35784918382463
C         3.99572974144352    1.86083814160939   -0.58417715407040
C         4.44004581752429    0.69298747519837    0.28733045566719
S         4.76078834892390   -0.69475879619747   -0.93138367568474
O         3.56203821314612   -1.48407349626478   -1.11838437520521
O         6.08862554224157   -1.27057350581067   -0.85517949467819
C         4.95328289321952    0.42675232015221   -2.33649737351543
C         4.86152819668051   -0.24703215781653   -3.68904178945089
O         6.28456098921721    0.92903545282162   -2.08233879025406
C         3.93616559929591    1.51935813971253   -2.02069846123315
O         3.09808089087850    1.95193856551050   -2.79560035555166
S         1.37582090477948   -0.62158194794145    1.25631043222559
C         0.85849985350129    0.40322070017433    2.61348011934524
O         0.22874854636238   -1.36902902045427    0.77727228791236
O         2.57065651592374   -1.34568114426148    1.66430300968345
H         1.09370471100104    1.85016580583028   -1.50087434683292
H         0.78838350100145    2.28932792977800    0.24036783746047
H        -0.11447319403262    0.99287688206613   -0.55863990697908
H         2.07000937590618   -0.14855832624258   -1.01372494233589
H         4.12076127264613    2.90569183361209   -0.31307384356250
H         5.09527871436791    0.67328954241094    1.14838683357977
H         3.87367713105584   -0.60352211634543   -3.99870582196848
H         5.63306492214137   -1.02577962643321   -3.66214598027938
H         5.13902889136631    0.39085161124100   -4.53346602820861
H         6.88570743545947    0.17111192778059   -1.90887719705804
H         1.31453036693671    1.39354985715319    2.58481036295753
H         1.32791548671951   -0.14687924201408    3.42965761231108
H        -0.23146640250906    0.32772469414917    2.64391027809295
