30
 energy: -57.472790001768 gnorm: 0.131288492905 xtb: 6.4.1 (79825abcba525fcdf90b791dcacef51065a7a4e7)
C         0.36308152920854    1.38262831555447   -0.33251410509637
C         1.63468763485867    0.55231972659664   -0.21407765404481
N         2.82201361536246    1.32705200487555    0.17308177188207
C         3.81305761133918    1.93383997070893   -0.68158308157047
C         4.20830471239569    0.79048765862186    0.24434493932824
S         4.57923229820334   -0.64051041621964   -0.90832016862577
O         3.48528275720144   -1.50102206462481   -1.30553919453674
O         5.87218256319395   -1.20026166375532   -0.56849753926007
C         5.03939242912695    0.48496422648833   -2.24650749411251
C         5.07032192732413   -0.29344303697713   -3.54454691678885
O         6.26123473261210    1.11357286597451   -1.79802241740971
C         3.95076926437732    1.54400767418205   -2.10032062270061
O         3.26307274523270    1.95733508759773   -3.02022208531597
S         1.54500214109381   -0.71506131904490    1.14838702390290
C         1.80371999522522    0.27202492081685    2.60388588193897
O         0.19220569586767   -1.23789228032602    1.12560041381187
O         2.64960883027438   -1.62979257968075    0.90035373884004
H         0.48357459228998    2.09363191837196   -1.15181199125313
H         0.17317456387128    1.85477312869109    0.63424198647576
H        -0.43825941897759    0.64284731498136   -0.44032936603865
H         1.74367119843427   -0.06030361580062   -1.10229601659810
H         4.06634395409997    2.93961264587915   -0.35736635665287
H         4.69516471688979    0.85826279562546    1.20845599224795
H         6.00474916856276   -0.86005422778606   -3.47654603125650
H         4.96807898738256    0.45551478593598   -4.33893251832169
H         4.22016799661165   -0.97561726884346   -3.63852161947432
H         6.86570875083768    0.37560760878821   -1.56152192197940
H         2.85343292753639    0.49985888835984    2.79291515479516
H         1.38421291561320   -0.35161423893633    3.39394581107840
H         1.28991058556957    1.23459673530569    2.66797545331493
