30
 energy: -57.471290451315 gnorm: 0.137937654497 xtb: 6.4.1 (79825abcba525fcdf90b791dcacef51065a7a4e7)
C         0.56568368528192    1.45585886343722   -0.33697826201155
C         1.80833790730182    0.59530256097765   -0.14810010178518
N         2.94996131282082    1.41854433325786    0.27476455304443
C         3.88839504403480    1.91381062930111   -0.70240752823974
C         4.31129445563817    0.81730093530800    0.26694280262088
S         4.57136767958397   -0.64540423087950   -0.87622609800384
O         3.38443432755532   -1.45747852355072   -1.03966846869988
O         5.79346195012038   -1.37437161651259   -0.60124716593984
C         4.87036153164608    0.44000020917996   -2.29103552438794
C         4.88683092030103   -0.10665924726283   -3.70265624008386
O         6.14639567364451    1.00228345269792   -1.91056118456076
C         3.82761710194030    1.54238557267373   -2.13142795130347
O         3.15214347541238    1.93757847250689   -3.06820045514892
S         1.70020646600503   -0.73767730863800    1.14885034455757
C         1.17240177390153    0.10619116639480    2.62162300263431
O         0.73733008290612   -1.77234966903620    0.82288739727590
O         3.07170483625200   -1.13335779227383    1.43317217398945
H         0.79489192112797    2.21247684944605   -1.08949838581050
H         0.15123825061292    1.90356433747844    0.56933156925878
H        -0.11493819704831    0.71719300128279   -0.77535478255989
H         1.88207861595318    0.10713537207894   -1.11369408412057
H         3.94852760615447    2.97845367848140   -0.49319858718322
H         4.82592314866528    1.07647007577404    1.18298043495945
H         4.83051195782074    0.74598450330014   -4.38723891590068
H         4.03305526893149   -0.79390952245027   -3.73721227191320
H         5.85146566687612   -0.61106405022500   -3.81224745047257
H         6.83239795650260    0.29876220573139   -1.92986835446453
H         1.67711703633154    1.05841266557994    2.78917700415611
H         1.26186677291653   -0.57178991467270    3.47100180551485
H         0.11793170644232    0.39172537416125    2.58676366120196
