30
 energy: -57.466834305718 gnorm: 0.152642137371 xtb: 6.4.1 (79825abcba525fcdf90b791dcacef51065a7a4e7)
C         0.23319958849730    0.71530872196114    0.03022148205266
C         1.69843273381827    0.30481920840197   -0.04057232467546
N         2.57544911775125    1.47647391318920    0.09326821965812
C         3.27435596833925    2.02466606481488   -1.04331702970857
C         4.04656732688684    1.26193876257309    0.02567957109011
S         4.62644878888956   -0.27219924111037   -0.88214082746600
O         3.62002227380718   -1.30104361179110   -0.72860332750238
O         5.98137946321198   -0.63877721168541   -0.52116338769538
C         4.63855550765272    0.59333421524478   -2.46955731461020
C         4.80564358013211   -0.39424225078135   -3.60470274547606
O         5.67483554463324    1.60093341536317   -2.47689477307340
C         3.35741336454587    1.41802033598962   -2.38824551136045
O         2.49428443437729    1.39855630626560   -3.25115586816220
S         2.29929919652152   -0.80750332601087    1.32775009734117
C         1.27811509231030   -0.28995054777584    2.68755642435216
O         1.97017660706996   -2.19433417613938    1.05884829051396
O         3.69731027450579   -0.50149618581777    1.59295640351001
H        -0.10807956594863    1.12908923000354   -0.92036147838920
H         0.04775588489457    1.46803369813592    0.80003864972077
H        -0.28316182354491   -0.21351164363334    0.29801057785014
H         1.89927461006599   -0.17711638391038   -0.99110755560159
H         3.21694273066326    3.10695818840080   -0.96459790082107
H         4.61728104867054    1.71908504584304    0.82345116806272
H         5.41268267208972   -1.21804193450599   -3.21523611962682
H         5.31099820586587   -0.04046424247024   -4.51128850841032
H         3.85466167261536   -0.87709120801580   -3.84851605249245
H         6.50131740093549    1.29721773277165   -2.91347073335497
H         0.23816978865666   -0.61859380599998    2.68084844313514
H         1.16383826052187    0.79419577938056    2.66159048611142
H         1.67912136889460   -0.74318387454379    3.59773530681431
