30
 energy: -57.466298987529 gnorm: 0.128174438702 xtb: 6.4.1 (79825abcba525fcdf90b791dcacef51065a7a4e7)
C         0.05744943933545    0.64631996545194    0.19922366742037
C         1.47948724712905    0.19371819142126   -0.10636057194688
N         2.33727223630299    1.38651688069299   -0.14216177742682
C         3.13614472248319    2.01411163437102   -1.16624156613908
C         3.80861074120042    1.16872688566548   -0.09202951117741
S         4.58907659012518   -0.32916803687391   -0.90514909605860
O         3.77070840270297   -1.48043183253786   -1.22114598716263
O         5.87325947046749   -0.47699975913023   -0.24975503373168
C         4.76168827260468    0.65267573771892   -2.41358333143273
C         5.00519780701564   -0.13132193512186   -3.68552342521475
O         5.86773287664739    1.47171835405435   -1.97197170875901
C         3.41303580989526    1.36443861911696   -2.46431947039220
O         2.59076681615866    1.27787400949766   -3.36229776499919
S         2.13718564273907   -0.84988649162466    1.28968036352543
C         2.09649549838275    0.08924901462346    2.79836187752321
O         1.32396824276280   -2.04961987225067    1.34666230215036
O         3.57974557552407   -0.84163644080861    1.09638653479743
H        -0.17167426524604    1.26389479089039   -0.67106214384264
H         0.04536995552516    1.27778206858860    1.09069011121352
H        -0.59446491629286   -0.19951937830784    0.44541638062135
H         1.55125557727026   -0.34311475504610   -1.04592234289884
H         3.25024948715257    3.09475340592977   -1.15971622930338
H         4.28139876466936    1.69884221943062    0.72441736729976
H         5.99784490686664   -0.58263454924149   -3.58655226532377
H         4.92057941551358    0.59900928513422   -4.49909331129427
H         4.28924503923181   -0.95572580285664   -3.75425864298215
H         6.37599910905610    0.88385205983991   -1.37031341612993
H         1.12297952657266    0.37414164137649    3.19916166190984
H         2.67760015484091    0.97762604974933    2.54894194072686
H         2.68617735888199   -0.59228560991885    3.41677754639363
