30
 energy: -57.473403492341 gnorm: 0.148402137458 xtb: 6.4.1 (79825abcba525fcdf90b791dcacef51065a7a4e7)
C         1.10467903065982    1.81287565499181   -0.31456667583305
C         1.98814399891787    0.59300224734514   -0.08692630383836
N         3.26126688683361    1.04135645674151    0.49443601620715
C         4.26905981456674    1.64381018283601   -0.34354653845969
C         4.54166050807264    0.30209760005474    0.32452058884940
S         4.74788924250096   -0.87726462557347   -1.11789199379812
O         3.57653139578766   -1.61759415808847   -1.53600899671137
O         5.98896525892085   -1.59388912851306   -0.90178806258656
C         5.01877106977465    0.42216054446698   -2.34561472341698
C         4.68657777125992   -0.07645173701618   -3.73587162361264
O         6.40050033906632    0.79557677877369   -2.14419267329536
C         4.20791269927893    1.60271743426662   -1.81946060639375
O         3.40503426648932    2.18695980641123   -2.52941259853952
S         1.17358781456660   -0.44142356597179    1.23105308459489
C         0.94600006452839    0.42011072945535    2.76914071892105
O        -0.13828038391943   -0.67850271714652    0.65945447391851
O         2.00379795074984   -1.63162041708804    1.34326855821793
H         1.12496394706968    2.26370677863568   -1.30836421462847
H         1.25485462389823    2.56382836671875    0.46461240372069
H         0.11025407459525    1.35300943083231   -0.28830950991822
H         2.12239563671663   -0.07056335536245   -0.93414163501836
H         4.75569975729570    2.51207055685155    0.09252067487769
H         4.97806089286121    0.06598228525724    1.28625887202655
H         4.41209674397366    0.58175801225091   -4.56668250660820
H         3.87897661333275   -0.81038123125489   -3.62831796020570
H         5.48308583666434   -0.71072523747212   -4.13615485061326
H         6.91259133357268   -0.03469926972615   -2.02453256903084
H         0.32612946352714   -0.22598906731097    3.39191926209490
H         0.41902566980356    1.35098827924814    2.55731140582568
H         1.92632838049594    0.57628588938316    3.22654403457526
