30
 energy: -57.476308533794 gnorm: 0.119813305891 xtb: 6.4.1 (79825abcba525fcdf90b791dcacef51065a7a4e7)
C         0.27927292551755    0.61167506149174   -0.10009136729318
C         1.73709529364887    0.17096965475631   -0.06919930371522
N         2.68863032204188    1.28144792630494    0.07662460569235
C         3.39132406284638    1.95545834457481   -0.98767953379168
C         4.17238738676396    1.16808132115701    0.05673177639173
S         4.78997739818348   -0.26729731763095   -0.97876345938182
O         3.81894443778502   -1.33587101325782   -1.07992714817175
O         6.16217723251514   -0.50037106161961   -0.57470219104364
C         4.71819384982621    0.65111800413678   -2.53457394179035
C         4.87836482318001   -0.06568950199078   -3.85832357949373
O         5.71492061473043    1.69283002386487   -2.43182120861688
C         3.35636296336774    1.30251545081099   -2.31289394777312
O         2.34105437059879    1.19973543492666   -2.98264724385917
S         1.98255399088817   -0.90128296531578    1.43434070457320
C         1.73370290664417    0.19598187917397    2.81050715412849
O         0.88843265738097   -1.84674466159717    1.32062898757422
O         3.34676624846487   -1.33020312378584    1.70519516692575
H         0.02121799737515    1.31509561296562   -0.89375433623416
H         0.01632399553295    1.12825124217110    0.82598078438832
H        -0.34026955144222   -0.29193105091793   -0.12674632885933
H         1.93647831931533   -0.48447464939436   -0.90988700129018
H         3.27045365589433    3.03538306296160   -0.98911489261933
H         4.83130079224336    1.48561869499733    0.85431523269713
H         5.75739965913184   -0.71382053723726   -3.93610885827116
H         4.98179366555418    0.73788561303051   -4.59724809000149
H         4.04647491092334   -0.75917755829475   -4.01320457524265
H         6.62292743209442    1.31745238575791   -2.40881485424200
H         0.65108508396127    0.14927990522369    2.93418091302845
H         2.13014688319295    1.17443320813210    2.53742867911713
H         2.31426753338713   -0.20386381093683    3.64580363979560
