30
 energy: -57.471720549432 gnorm: 0.131983158650 xtb: 6.4.1 (79825abcba525fcdf90b791dcacef51065a7a4e7)
C         0.42373737321826    1.18982771602469   -0.37076335427349
C         1.72452467652143    0.41665366575853   -0.19590384952827
N         2.88742635452999    1.20000265242208    0.24440267447253
C         3.89467248336379    1.84111905705889   -0.56506409671858
C         4.25214060005624    0.60648018929269    0.25267698727370
S         4.68794383427975   -0.69571919961155   -1.02338417777785
O         3.66568250570715   -1.65301994855561   -1.38882347679946
O         5.97838061932778   -1.16420327799381   -0.55882327821496
C         4.98195102408699    0.48073076661671   -2.36454452926196
C         4.81946722468254   -0.04868643369352   -3.77347933704272
O         6.28045953126150    1.00976603965170   -2.01356926111019
C         4.03287207346813    1.62476745583206   -2.02034517831440
O         3.36314413763421    2.16031251218550   -2.88904574604460
S         1.50923058408850   -0.68501927048289    1.29089585914060
C         1.22215312984551    0.55012715035779    2.53658882053939
O         0.35796173739216   -1.55808156293451    1.16333433069575
O         2.81297206014336   -1.29443323336743    1.50834128693220
H         0.55105991659887    1.98746635228367   -1.10483100228834
H         0.18669127633986    1.76578195406495    0.52683822371669
H        -0.35823729294356    0.43694184524168   -0.52151436411359
H         1.99183095116643   -0.24805091951577   -1.01004865746905
H         4.06167291551129    2.84973703289600   -0.19675734388309
H         4.62037959016402    0.50762108813809    1.26547672847363
H         5.82119627918980   -0.24918654988626   -4.16738952404994
H         4.37002794637877    0.63152918354982   -4.50679439324857
H         4.27099955863278   -0.99032264432502   -3.87073723448187
H         6.87710942767505    0.25030040284140   -1.83153934245002
H         1.88178992198216    0.33041520465541    3.37691232147869
H         0.14220860857786    0.62752467501585    2.66634296160210
H         1.73637962054290    1.47782635611981    2.27277566631685
