30
 energy: -57.472948874106 gnorm: 0.137993906508 xtb: 6.4.1 (79825abcba525fcdf90b791dcacef51065a7a4e7)
C         0.38766586250937    1.34379213123591   -0.11550988489965
C         1.68261998938296    0.54345320828699   -0.06098464859520
N         2.77124507509309    1.51695898377786    0.10341640214691
C         3.68565483920376    1.95257204270788   -0.92367050092830
C         4.17385983585147    1.02583983120152    0.18251228387828
S         4.57776569670087   -0.41157944372303   -0.95091864102612
O         3.48099832328170   -1.33581649198409   -1.14553631920977
O         5.87344604418348   -1.00562964543284   -0.68854857823501
C         4.90783123516166    0.53226634801692   -2.45737066412467
C         5.07097695279949   -0.36419913566348   -3.66630158068121
O         6.06957483297470    1.22347491337035   -1.94573716809072
C         3.64144684788139    1.36434119713295   -2.27858020125638
O         2.67238305709388    1.42143530518649   -3.01860744695427
S         1.88337189622243   -0.75063874799301    1.26401831324475
C         1.20927530086408   -0.12806175409972    2.78643178143927
O         1.13710114928479   -1.89147116621591    0.76852761386285
O         3.30343178988089   -0.89669389322500    1.54775678866488
H         0.03972853237772    1.69543764795999   -1.08843268723499
H         0.44596133137608    2.19114278033898    0.57165912071595
H        -0.40866269490755    0.69839585299207    0.27226821118105
H         1.82038064722304   -0.01122027577748   -0.98265482988503
H         3.78763762743556    3.03379977035053   -0.88631612395266
H         4.91727216744098    1.31381801471442    0.91432037585368
H         5.13545563702230    0.25332279429893   -4.56815289654608
H         4.17201171139706   -0.98540233573388   -3.75799673650863
H         5.86827501025108   -1.06291393947256   -3.39599053161560
H         6.82074010262185    0.61674308723173   -1.76259440281639
H         1.35066302373553   -1.00096210312931    3.42486119434187
H         0.16079869864858    0.11708298518917    2.61407298671957
H         1.79852114577211    0.77102464458339    2.98413120549945
