30
 energy: -57.468559646069 gnorm: 0.123743132454 xtb: 6.4.1 (79825abcba525fcdf90b791dcacef51065a7a4e7)
C         0.54928574713403    1.20153132260179   -0.30543525354520
C         1.87097303200335    0.46527769793026   -0.12796726104747
N         3.00576855429408    1.33236593439698    0.21879333628294
C         3.93524106553837    1.93988792822255   -0.70197228254508
C         4.41305590465781    0.84919108808973    0.24823318023822
S         4.76361619026645   -0.54984370112727   -0.94917608073031
O         3.76343762536832   -1.52529885525620   -1.32748667977270
O         6.08000635393859   -0.99216006748873   -0.53445397212111
C         4.92698509608849    0.46953250141960   -2.43355089700073
C         4.58742064787302   -0.25667468504509   -3.71772376563790
O         6.21400651607842    1.11001143513320   -2.28338797679117
C         3.86546454360722    1.51874051282001   -2.11672182138396
O         3.13785923836414    1.98564192377667   -2.97845164229412
S         1.56298893453462   -0.71446429592654    1.28056487660281
C         1.09233247955339    0.19251505843044    2.73508268477106
O         0.41460763594328   -1.50674623748337    0.88377855360377
O         2.80628896182662   -1.35777844947064    1.67901396012106
H         0.51020543684028    1.57883266673078   -1.32886583757434
H         0.58244710246891    2.01887588367856    0.41875458355239
H        -0.32954315604264    0.55949641423001   -0.17698947761676
H         2.01625209762392   -0.14294726605669   -1.01401070181942
H         4.04322944778598    3.01368786580710   -0.57492324246422
H         5.10058654762570    0.83846689742137    1.08389043352186
H         3.84045688255843   -1.02393342854202   -3.48928168424781
H         5.37502800971572   -0.95637933227681   -4.02190787579512
H         4.20392859315709    0.58676749602546   -4.29952593486351
H         6.81790405271566    0.44668227572958   -1.88187056103717
H         1.38383621965330   -0.40012999379562    3.60303143563676
H         0.01138831162593    0.31889932815646    2.66657425544842
H         1.64759935164795    1.13296581091082    2.77847811073509
