30
 energy: -57.481112020180 gnorm: 0.128804218933 xtb: 6.4.1 (79825abcba525fcdf90b791dcacef51065a7a4e7)
C         0.41152613343726    1.52957541332455   -0.10110440685346
C         1.66265296293923    0.67387576771210   -0.25237040301105
N         2.88030585152348    1.42057591040816    0.09347039308037
C         3.85801029460543    1.97245406991246   -0.81225382393572
C         4.26613040183562    0.88385419875362    0.17222867050905
S         4.59630536331281   -0.64080548769402   -0.86718315582264
O         3.45217095579870   -1.42468994086148   -1.28127308723096
O         5.73240437940020   -1.33077754054266   -0.28948179854523
C         5.02930512682900    0.42046493590162   -2.26554009449149
C         5.19096216762900   -0.30259979171844   -3.58570116294938
O         6.24793222562236    1.03231695802903   -1.78619533592560
C         3.92694462050973    1.47343354229125   -2.20148976977013
O         3.11693952696095    1.61206270736193   -3.10407409094600
S         1.58907189261535   -0.63906523618132    1.06724315797192
C         1.30797980027064    0.15009612663446    2.63503226280654
O         0.52230875664889   -1.58942616740502    0.81672334321570
O         2.93647178725512   -1.16598011750116    1.22625246284833
H         0.28768332273253    2.18319961765524   -0.96639747036024
H         0.44074105960954    2.03264149677473    0.86826328666102
H        -0.41852149213358    0.81398965276925   -0.10341380823486
H         1.65711234552378    0.24258453551275   -1.24739492894486
H         4.06689315760579    3.02393090635863   -0.63445188182370
H         4.87266485948353    0.88086845783583    1.06846707070912
H         4.50475738512746   -1.15479968251266   -3.54440983628514
H         6.22936830235580   -0.61566235649955   -3.74739362717189
H         4.86542854659573    0.33516885684226   -4.41288532960837
H         6.75693241746786    0.29202111396580   -1.38770454329663
H         0.31003394600203    0.57192300852367    2.50971755234908
H         2.15616593934721    0.81226296225021    2.81172985316304
H         1.43798652683991   -0.57499259740319    3.44249537280987
