30
 energy: -57.470258956782 gnorm: 0.126790295036 xtb: 6.4.1 (79825abcba525fcdf90b791dcacef51065a7a4e7)
C         0.33647724065315    0.77215743418179   -0.09000556137637
C         1.78527964550582    0.30192609718008   -0.07340146882619
N         2.61704315126116    1.51131274103125    0.00007608250196
C         3.31175275705115    2.09370595776900   -1.12197941452653
C         4.10060282381648    1.39567376958366   -0.02139588240637
S         4.61556461328501   -0.22084273884078   -0.81868402083910
O         3.60657200171803   -1.23332671170319   -1.04627787198026
O         5.98364000022432   -0.61841978185424   -0.55255717715934
C         4.55275257290654    0.52051460310625   -2.46660081957965
C         4.72221440402470   -0.44669461722585   -3.61880299689744
O         5.67291988156673    1.41922148744969   -2.30308495766841
C         3.30324656760985    1.39514483653513   -2.42416601223379
O         2.39661473116889    1.40210347839977   -3.24145118017385
S         2.29571671465918   -0.77597511416732    1.35774883289248
C         1.25794010429283   -0.47140893273980    2.76842606226986
O         2.12273721222052   -2.18457093413156    1.05797296218554
O         3.63749563804936   -0.34840146211384    1.72547130966190
H         0.07551598966677    1.30960582070884   -1.00342889524410
H         0.14971830368151    1.53617093102842    0.66828672963026
H        -0.28684115335387   -0.08320691147675    0.19437691285254
H         1.90575175679926   -0.38334964905018   -0.90526699836895
H         3.12826753589358    3.16206255424070   -1.19811397738349
H         4.67878213485068    1.83779129294572    0.77946429803906
H         5.43882662776120   -1.22813574236444   -3.34559370010841
H         5.06500616835617    0.01992765226347   -4.55003733211091
H         3.74703710851187   -0.90131332911388   -3.81705965434186
H         6.44274305376964    0.86588477724916   -2.04403899160365
H         0.26951575770825   -0.93190034088143    2.74600737732162
H         1.01955387227964    0.58310513477959    2.91082960573214
H         1.84530689394242   -1.01871772572451    3.51011698178716
