30
 energy: -57.473602934883 gnorm: 0.130585857281 xtb: 6.4.1 (79825abcba525fcdf90b791dcacef51065a7a4e7)
C         0.52117463302270    0.40108645619578   -0.40668318844518
C         1.93609291135767    0.05612649706539    0.03989318801994
N         2.83230846207658    1.20552023253085    0.22840715500146
C         3.48606592630083    1.95813357259547   -0.81417895340185
C         4.29207900968445    0.98670265885912    0.03874656599175
S         5.03480759337229   -0.29569030279978   -1.10920917866273
O         4.48630640018255   -1.63300204109939   -1.03349537208312
O         6.47084277582663   -0.24462233018481   -0.92022169395535
C         4.58979049867118    0.62359399570028   -2.60120851043859
C         4.24944533207690   -0.06983929500719   -3.90316714507242
O         5.67176279168351    1.58073696284855   -2.65019421755397
C         3.39678602291027    1.49230293691070   -2.21374355517826
O         2.51267237324864    1.87633382890515   -2.96264143033288
S         1.83929183488719   -0.88060815763076    1.64730287544449
C         1.14859301324273    0.28718192252024    2.79575947774080
O         0.90001885575820   -1.97228148873199    1.47425583875827
O         3.20300394300743   -1.28787931265925    1.95198175848877
H         0.38938588472116    0.55413181153366   -1.47929802230869
H         0.25875444087177    1.32794850528391    0.10874392823442
H        -0.09126483219230   -0.43035029692368   -0.03969789359717
H         2.32814150197134   -0.65615170431731   -0.67779355577434
H         3.60555651772930    3.01910038213532   -0.61189038364576
H         4.91443860600587    1.35798047247608    0.84246150406828
H         5.13626007622853   -0.42565114217951   -4.43775499551289
H         3.62248347573537    0.53270970718862   -4.57121912921103
H         3.56378576847099   -0.86954141322798   -3.60769782706001
H         6.48404591580271    1.25325752946717   -2.20424871566317
H         0.23094075611968    0.59482196500858    2.29295776528768
H         1.69547292265080    1.20591172252493    3.01015304556188
H         0.83696027667823   -0.24071711693867    3.70066815928041
