30
 energy: -57.466428544560 gnorm: 0.133368516320 xtb: 6.4.1 (79825abcba525fcdf90b791dcacef51065a7a4e7)
C         1.00263184568727    1.84072250008461   -0.28159079906500
C         1.78228546010858    0.53956056814284   -0.14180724940921
N         3.13601660687186    0.86312594952042    0.32995882407043
C         4.15077398482461    1.59439202726847   -0.38860143720075
C         4.49952186078664    0.26913873599975    0.27690266262985
S         4.55972576706257   -0.90888885963870   -1.18001402720674
O         3.22620269409740   -1.38380083614594   -1.48194723809850
O         5.62797568677988   -1.88344729462997   -1.08203841037218
C         5.11831694462742    0.35925669716382   -2.34146509448173
C         5.03128754332332    0.12557536811715   -3.83464953364537
O         6.41452312810507    0.71838947488453   -1.81225863194168
C         4.21858961823146    1.49418570509625   -1.86139126771046
O         3.85285186042147    2.35184128930071   -2.64920310375974
S         1.29797073116960   -0.56086059951820    1.28126010031135
C         0.86942134095288    0.62357284341255    2.53553835452292
O        -0.00803755947134   -1.08651239199213    0.93202922449093
O         2.38373495051367   -1.43266914083700    1.70490577264883
H         0.99171059544991    2.14264687215120   -1.33040733918532
H         1.45573695165085    2.65668250599814    0.28630686782355
H        -0.02933661470688    1.63093798752154    0.02185431096721
H         1.80835694308897   -0.09316471255190   -1.02220238265902
H         4.45460211922096    2.54708411874444    0.03674017444134
H         4.95748417208969    0.06687868715763    1.23632842680265
H         4.02086981069657   -0.23495406385210   -4.05351288126129
H         5.70692045090720   -0.69250278900871   -4.11161203225377
H         5.35240429983274    1.07750752066953   -4.26785137854505
H         6.81346140515680   -0.16184621607638   -1.63352021083631
H         1.23873561178234    0.38119814220505    3.53273397045842
H        -0.20595119898408    0.66127250204703    2.35873530284091
H         1.31673343827505    1.59847933197171    2.32548763059315
