30
 energy: -57.471012703765 gnorm: 0.119175354365 xtb: 6.4.1 (79825abcba525fcdf90b791dcacef51065a7a4e7)
C         0.54587021448968    1.82438938179605    0.18263387800570
C         1.64157401193992    0.85777681577400   -0.24808054083414
N         2.96359299142157    1.41069798139888    0.07809394721250
C         4.18965215974033    1.83001405404380   -0.55575493991195
C         4.16853824690962    0.56351241251055    0.29061665668761
S         4.20062893044034   -0.78613876368339   -1.00991848601918
O         2.99727163413229   -1.08993021533685   -1.75465387840274
O         5.10421517994918   -1.86112497402327   -0.65150839452073
C         5.16996324653182    0.23936743445416   -2.14036700787899
C         5.09441708955324   -0.36692111945501   -3.52546188402869
O         6.44924438784894    0.39881988082515   -1.48676087205656
C         4.45742119330610    1.57985779284272   -1.98735256202091
O         4.17987629072986    2.38446118305046   -2.86231936627843
S         1.52424643794656   -0.58565626903661    0.92381678592057
C         1.56810638710745    0.27331760283111    2.47944890576365
O         0.19764810014183   -1.16288528826555    0.81954225916715
O         2.74167361624805   -1.38221174548806    0.96600881945159
H         0.30965455276721    2.68443422064819   -0.44650741957999
H         0.94216005131790    2.30176635824740    1.08189374831942
H        -0.37330044579331    1.26875563318388    0.40044988931359
H         1.47502779826387    0.39775573402699   -1.21594393439357
H         4.40853709531056    2.79420684927654   -0.10489925359044
H         4.75811995423771    0.38077661224454    1.17951341749383
H         4.38940904269278    0.27866625988064   -4.05932255905913
H         4.70801313201496   -1.38970849440510   -3.44156975066590
H         6.08178882886051   -0.35098249496752   -3.99641585358358
H         6.78233089569856   -0.49407861983076   -1.24655327534769
H         2.13651211247738   -0.45589338983986    3.05798488771117
H         0.54834616194666    0.42264011912430    2.83567713628805
H         2.20435405134992    1.16132016676864    2.44349843166406
