30
 energy: -57.471156723595 gnorm: 0.142974399724 xtb: 6.4.1 (79825abcba525fcdf90b791dcacef51065a7a4e7)
C         1.03680428452382    2.21552912670505    0.05313633722380
C         1.89642007341913    0.96574033709898   -0.08654291727427
N         3.26368279750236    1.34101319674631    0.30024959449114
C         4.42942142281128    1.67697969211245   -0.48012967269395
C         4.38873357561129    0.36683301679036    0.29619348762190
S         4.45006005236050   -0.91130332774500   -1.07369197065455
O         3.13912372287369   -1.23147658793515   -1.59706933976533
O         5.27391175387658   -2.06604444819795   -0.77643351868489
C         5.15339127296373    0.22981009122496   -2.28710500663087
C         5.09472942242288   -0.29664306267426   -3.70526815272044
O         6.46384390716932    0.33095673437101   -1.68571532422246
C         4.32899782275988    1.46569620802231   -1.93924732994231
O         3.49750435611859    1.90073400707613   -2.71985317126719
S         1.39217701951341   -0.37915330357206    1.09988375439950
C         0.66125220351332    0.39126091327363    2.52535278090307
O         0.28677460710218   -1.08138267193729    0.47627403165510
O         2.53993819656189   -1.18601816881695    1.48721190505844
H         1.42162022788535    3.02207013813832   -0.57352307261339
H         1.02018433173940    2.55465850857291    1.09155713918041
H         0.05191108276558    1.95099894433848   -0.34818216401695
H         1.81386681645325    0.53304538069198   -1.07754073123053
H         4.85285190153728    2.59916716401266   -0.09138036412631
H         5.02932642027157    0.19267681944851    1.15085522350696
H         5.83313294260523   -0.06072848769957   -4.47852825518652
H         4.05727841879908   -0.12570711561131   -4.01658188546830
H         5.16364152381465   -1.38828604136532   -3.68243478787481
H         7.10422718592266   -0.35504744405430   -1.97764265664403
H         0.37599858344610   -0.40965929951623    3.20850342908536
H        -0.28225012621062    0.87694748535767    2.27431774195715
H         1.34977663015600    1.04060947889623    3.07210010375159
