30
 energy: -57.463272066580 gnorm: 0.137771070765 xtb: 6.4.1 (79825abcba525fcdf90b791dcacef51065a7a4e7)
C         0.42944585103961    0.23006805831031   -0.21847861567126
C         1.85495732257301   -0.23347677694151    0.05256531832667
N         2.66740600779276    0.99082421963108    0.08189075247296
C         3.26690649203073    1.73322917030249   -0.99988811320104
C         4.13794502276983    0.86001014904191   -0.10568596888083
S         4.90274125687106   -0.36002979913313   -1.30592305351574
O         4.11986949000136   -1.56458180015351   -1.48243113665458
O         6.32392142416338   -0.37535227512155   -1.02213896401234
C         4.73112500277300    0.82076200576289   -2.66440176710808
C         5.00286506950083    0.35407633641328   -4.07866576953449
O         5.74975103040048    1.74664560318939   -2.22357653941827
C         3.32618037417277    1.36802754811995   -2.43057485903649
O         2.47121415881353    1.46776128714528   -3.29606352745439
S         1.80674613872630   -0.77296003455325    1.83504720299186
C         1.37295747371527    0.53770062900554    2.95475570087867
O         0.77069266630112   -1.76898193690124    2.03116767634995
O         3.15643974060506   -1.24830744260368    2.10109560342343
H         0.27464221569120    0.35545681625681   -1.29160825711078
H         0.26423242345393    1.15522550694252    0.33864878879955
H        -0.21381287856446   -0.59865644998303    0.09850919926030
H         2.23880644449803   -1.05912153532616   -0.53657573216681
H         3.29842399785534    2.80312241045813   -0.81231324634379
H         4.78955368715471    0.95933649269621    0.75261283932363
H         6.07904900022787    0.41701131388910   -4.27022246314596
H         4.59403900457685    1.15273920844390   -4.70909323442346
H         4.68093254459817   -0.68365083147117   -4.20687032271168
H         6.25869230829244    1.27176386397963   -1.52976089158421
H         0.44387879365955    0.95915130676997    2.56910073179516
H         2.11356465809337    1.33690487732704    2.91139384387553
H         1.15231982315467    0.00204133504585    3.88159993175609
