30
 energy: -57.477764890353 gnorm: 0.132705782473 xtb: 6.4.1 (79825abcba525fcdf90b791dcacef51065a7a4e7)
C         0.38136263766198    1.39552715218222   -0.08084155673707
C         1.63453820257552    0.54052596733848   -0.21848456288879
N         2.78291920688525    1.38308578131802    0.14367500010054
C         3.72333124209403    1.99096380140505   -0.76567716935124
C         4.17607043191041    0.85974402058741    0.14875517702882
S         4.48767195264774   -0.65036478153143   -0.91729149256323
O         3.27804713366965   -1.28933478293049   -1.39006414743559
O         5.63997357746351   -1.36556876160712   -0.40620881835794
C         4.96491588483344    0.40357864248372   -2.30676165198292
C         5.02885450190656   -0.33824627156081   -3.62486198641954
O         6.16811573921985    1.09268715439859   -1.89856333041375
C         3.93325141584286    1.51666147355450   -2.14941151922115
O         3.31217395768537    1.91384026944202   -3.12229206038849
S         1.79178177916455   -0.73264263174181    1.13241305407864
C         1.41832034662601    0.25472898647367    2.56257910914976
O         0.77146859826964   -1.75943512368803    1.03974236067457
O         3.18877303327214   -1.10985963105848    1.28904159232862
H         0.08250024880895    1.80287671145360   -1.04833385035375
H         0.39652901131133    2.22267145602968    0.63274445956315
H        -0.40112495069181    0.74922571119525    0.33274639845191
H         1.66899581613542   -0.11033111766507   -1.08526848644931
H         3.97450918621641    3.01982686047440   -0.52236755750555
H         4.77879273445450    1.02396037636070    1.03243785460083
H         6.08134606341344   -0.47349035899350   -3.89467151439284
H         4.53333655966235    0.30795712688704   -4.35924816560362
H         4.55411772494921   -1.30783469432820   -3.44744181696566
H         6.69193537566616    0.36185157071632   -1.50181859895711
H         1.32763311695207   -0.50353353437919    3.34126479590802
H         0.56969618840085    0.93572086084438    2.49051116774370
H         2.27426961321064    0.91052461299883    2.74128285785403
