30
 energy: -57.477791035021 gnorm: 0.135517909196 xtb: 6.4.1 (79825abcba525fcdf90b791dcacef51065a7a4e7)
C         0.70673312665051    1.96404775283870    0.07307458251541
C         1.79562336046060    0.92546584458749   -0.16375299300669
N         3.06779328792187    1.45852233406962    0.34347475629735
C         4.13097462565109    1.86384773843705   -0.54318673856860
C         4.28745207299956    0.60671648124436    0.30295349693098
S         4.37050918388709   -0.80834935101443   -0.92369633757031
O         3.11296898917420   -1.31386844554470   -1.43166479490955
O         5.37292717449181   -1.77470133764028   -0.52139883859636
C         5.00790043378748    0.27770934974321   -2.22115336108820
C         4.86808191183722   -0.35270894419173   -3.59038832981201
O         6.34697201779510    0.55923722478282   -1.75551868817248
C         4.21437176391932    1.55969128990296   -1.98689158812154
O         3.69646477814385    2.16254640504133   -2.91334872225739
S         1.60937735782325   -0.53299956746448    0.98027465744899
C         1.12558747393694    0.02525183082630    2.59707823957469
O         0.49009190638787   -1.25589247808851    0.40707697403129
O         2.88063611975942   -1.23341717085546    1.08856163090478
H         0.60312532350572    2.48515120504652   -0.88034575768739
H         1.01920788643339    2.68957804250138    0.82777190269675
H        -0.19917196502937    1.45353562428362    0.41913918052941
H         1.95159698763242    0.48948794565819   -1.14442221552139
H         4.54378625240734    2.85222758674004   -0.36004488840133
H         4.88519278316778    0.55528389282922    1.20361824522195
H         3.89794029948795   -0.31174148221056   -4.09632661707737
H         5.10957310904519   -1.42224533365481   -3.60501148356528
H         5.51557772904593    0.07545877121392   -4.36134631024365
H         6.80427559914923   -0.30117841204468   -1.62717380019584
H         0.19759235266319   -0.50317119474335    2.81873514544929
H         0.98405279528745    1.10436890460641    2.52939545810626
H         1.82694473688997   -0.21205206835869    3.40109125551171
