30
 energy: -57.482860662939 gnorm: 0.120387084543 xtb: 6.4.1 (79825abcba525fcdf90b791dcacef51065a7a4e7)
C         0.62079446587073    1.06322998298651   -0.59092624004855
C         1.87770102461705    0.28491294941151   -0.22373410928881
N         3.00940362618264    1.08840579085297    0.25947833617296
C         3.97774346320442    1.83341765564463   -0.50738979822208
C         4.41672040172515    0.60482093337621    0.27916369218919
S         4.87463784056594   -0.64349670050174   -1.04219716409285
O         3.76968749037182   -1.55833724517862   -1.23491544154620
O         6.19894238490914   -1.19141989880560   -0.82651477048447
C         4.90481685385021    0.54234116785839   -2.40677168219620
C         4.57820140412221   -0.03677401468553   -3.76681903512389
O         6.19362370111817    1.18849282725955   -2.30356680911811
C         3.89900520509771    1.60106786116103   -1.96463514966785
O         3.08660941950435    2.12203188410986   -2.71202679487670
S         1.48914857644871   -0.63371213632928    1.34972168253348
C         1.00855557548859    0.50830571621214    2.62431051503543
O         0.33102810543934   -1.46457654701505    1.08074032137573
O         2.70010523913296   -1.28425425047929    1.82804024515433
H         0.72445971666060    1.47615707762693   -1.59593293971442
H         0.30689819075198    1.83203685282283    0.11900886697942
H        -0.16123698138540    0.29703996060177   -0.54166119409764
H         2.26133826224762   -0.52617127792296   -0.83289865636218
H         4.23293900623696    2.85214605759750   -0.22825375018947
H         4.81596591681978    0.50868065819267    1.28041114707030
H         5.51594225789700   -0.23162486107674   -4.29738653276100
H         3.86930393040206    0.60204670962403   -4.30701564435576
H         4.11220173851651   -1.00191205927241   -3.54702936439649
H         6.82656685111473    0.49854223285740   -2.00479400273827
H         1.03993045139779    0.01832112932766    3.59820390990836
H        -0.00403149494379    0.85336639480465    2.41286965853801
H         1.76862489830400    1.29326757488504    2.59635366656763
