30
 energy: -57.470468726542 gnorm: 0.123807700744 xtb: 6.4.1 (79825abcba525fcdf90b791dcacef51065a7a4e7)
C         0.41724885967994    1.26999323226712   -0.18080073814544
C         1.66256566875172    0.39434789903539   -0.12738793108847
N         2.90477137156983    1.14208637724570    0.11273213500174
C         3.75158930005491    1.86958296677185   -0.80075566107496
C         4.34768926241752    0.77914671908449    0.08039761424454
S         4.82823463913682   -0.60681038567750   -1.08672648226080
O         3.63199742472847   -1.38560410414838   -1.32648827156800
O         6.12706251609912   -1.13467043081194   -0.71939667585677
C         5.06281105263011    0.56655966858107   -2.44221991938626
C         5.23190064543484   -0.10032569471419   -3.79072037016950
O         6.24351187989704    1.26151040646535   -1.98159498757468
C         3.81148461977895    1.40610724152628   -2.20266605583850
O         2.94685457460161    1.59870618878819   -3.04249060616825
S         1.43745009162463   -0.68066678190096    1.37736275646955
C         1.34811920562117    0.36567457523783    2.81156666592722
O         0.15657480524369   -1.34395773085474    1.22461039886973
O         2.61484202356335   -1.52140524208737    1.53647531548962
H         0.10651025076783    1.63394240192038   -1.16175753882278
H         0.67731131454642    2.07430654445038    0.51133388614759
H        -0.42436266333469    0.70564363642164    0.23662823986871
H         1.59068345437163   -0.46573210375537   -0.78405526458477
H         3.83121210867789    2.89983838560241   -0.46447733031339
H         5.02420870674085    0.95181846934193    0.90722417075317
H         5.97149916477812   -0.89652253312490   -3.92447857059779
H         5.49062970919677    0.63169118965136   -4.56509138970072
H         4.31460608085080   -0.62134998862981   -4.08064967234938
H         6.96485708298620    0.60292469802370   -1.87278319331414
H         1.69633736893534   -0.19713345515073    3.67847430513786
H         0.34869660503414    0.75941518266916    2.99926185224621
H         2.05548379923203    1.18708048302550    2.67163901605411
