30
 energy: -57.472662509105 gnorm: 0.129588771924 xtb: 6.4.1 (79825abcba525fcdf90b791dcacef51065a7a4e7)
C         0.84197184159852    1.16920334272248   -0.55837388474363
C         2.00604107502777    0.32082164713806   -0.06278041075285
N         3.16543711044756    1.07999166766648    0.42641022397862
C         4.05934401344417    1.79136463606785   -0.45432266785045
C         4.51018986716491    0.48734039772663    0.19149144186847
S         4.80190070353409   -0.76964232508393   -1.16824347853628
O         3.64766889569146   -1.58218934758534   -1.48840765335458
O         6.07626102621061   -1.43064159480825   -0.96922844111484
C         4.96205476333989    0.54324961721087   -2.40106595798012
C         4.72157021125516    0.20508663238662   -3.85694844756023
O         6.24779732684895    1.09906701193096   -2.04452790124818
C         3.96606151116677    1.59224279779861   -1.91562312086677
O         3.09391321097509    2.06721835405667   -2.62536973849665
S         1.41456788104021   -0.58008809938124    1.45680152661277
C         0.46207872461468    0.51982223190227    2.47793460839079
O         0.58658017865894   -1.71008230440931    1.08066441213639
O         2.62966684051373   -0.90338481451881    2.18989325439555
H         0.95102254811913    1.53040439195938   -1.58254939768145
H         0.78103908089051    2.06331919394265    0.06648351570653
H         0.00194072381952    0.47086633629329   -0.47050736452716
H         2.33699737773011   -0.43270988919759   -0.76902027868302
H         4.36277812715118    2.74229590682534   -0.02478025262146
H         5.19211967043420    0.28147808972069    1.00618700970206
H         3.79803490586601   -0.38304714132690   -3.85414937073835
H         5.43825725688467   -0.45618313958431   -4.35846802854980
H         4.51187345950166    1.02630078573947   -4.54874987820744
H         6.99555837891558    0.47812008333936   -2.19010387651639
H         1.04962355862342    1.43228283112198    2.36956327578585
H         0.25555240515511    0.12685176842563    3.47394052049918
H        -0.47688944406468    0.60644690311679    1.92522580175247
