30
 energy: -57.473571358453 gnorm: 0.120313838130 xtb: 6.4.1 (79825abcba525fcdf90b791dcacef51065a7a4e7)
C         0.62331689727410    1.36517770525288   -0.45227566578943
C         1.83791665272016    0.52644504241701   -0.07584967548998
N         3.03130620247790    1.30475257443435    0.28457304987081
C         3.99472969109725    1.92437193342203   -0.59218147934999
C         4.36799825814662    0.66030524765747    0.17177078804666
S         4.59090961899404   -0.74033895350238   -1.05398863332738
O         3.38643271157493   -1.49209833438534   -1.33520392888791
O         5.85442882949723   -1.37485559985573   -0.73550930086264
C         4.84360831627291    0.49725223327212   -2.34770315552331
C         4.74888445310973   -0.02309047712479   -3.76617123754128
O         6.20892859995244    0.89079342941635   -2.08272739963107
C         3.92388791215980    1.67706484337896   -2.04736902723536
O         3.33363735215645    2.31504022149748   -2.90444334405326
S         1.68191140256172   -0.69584285915734    1.32139147251141
C         0.83639698026678    0.23354195861868    2.57880958999157
O         0.81184844972938   -1.83187024858338    1.08398486736071
O         3.00537343881874   -1.04403442499988    1.81699272437861
H         0.69423835767949    1.67386058591552   -1.49677495278787
H         0.60962608696143    2.26644752640405    0.16507998476299
H        -0.33185050141740    0.84402827600028   -0.32148616271581
H         2.02197053414871   -0.14870120979005   -0.90435332803346
H         4.28016646175672    2.92468780297478   -0.27794709571974
H         4.96876404221691    0.73731666863848    1.06859077529534
H         4.56147813296146   -1.10132431321281   -3.79959722928368
H         5.66948507545637    0.22733199449900   -4.30674778427170
H         3.83055348744432    0.38912398053787   -4.19477608051380
H         6.76029151867731    0.13757685316518   -1.77519241808125
H        -0.20694001195799   -0.04332453637805    2.42282725938493
H         1.05527831025288    1.30037734531745    2.63412598847330
H         1.08646192897294   -0.20339981256937    3.54896498498553
