30
 energy: -57.474203939552 gnorm: 0.121985773744 xtb: 6.4.1 (79825abcba525fcdf90b791dcacef51065a7a4e7)
C         0.76712976516964    1.58257964078532   -0.52843759371135
C         1.79539116716878    0.50055772000396   -0.22458124262973
N         3.04670930152174    1.07428533528325    0.29008861060688
C         4.15040808193574    1.69570128141681   -0.40020341351854
C         4.33750370779425    0.33431017568793    0.25738838281049
S         4.50005383791547   -0.86730076983135   -1.17218785181618
O         3.30848646705556   -1.50196853500040   -1.69406224104270
O         5.56379248537709   -1.80849005193295   -0.88384067916301
C         5.07624289059514    0.43818915525141   -2.28254277971842
C         5.13130775556358   -0.06708515491962   -3.70853246285378
O         6.35628068625766    0.53590681427618   -1.61835846769836
C         4.21021255656321    1.62648334008366   -1.87512111656196
O         3.74502252832255    2.45370362420024   -2.64277311588364
S         1.31361539459804   -0.48267172863408    1.28265468783982
C         1.41994866114325    0.61605664149134    2.67593868763513
O        -0.06881181303506   -0.84639393986851    1.03662453714869
O         2.33718959191248   -1.49522765519398    1.49581210840634
H         1.02153397326903    2.03717768227757   -1.48755846615681
H         0.77637523570906    2.39162286595722    0.20570564925501
H        -0.27241169048704    1.23772425588232   -0.56685241012786
H         1.71100359141007   -0.22670160159268   -1.02463703153446
H         4.36473173155506    2.68801466726401   -0.01261003933398
H         4.85861939133268    0.22287499444716    1.19927845372533
H         6.14783650382475   -0.03901286276024   -4.11437465101389
H         4.53053845337982    0.56096403805149   -4.37716568075567
H         4.70552569400391   -1.07487124230759   -3.71414239183298
H         6.82287339671867   -0.32880469190587   -1.59646560137213
H         0.62382934149653    0.42406716990743    3.39626617889068
H         1.23073776991347    1.58023207501568    2.20299930985511
H         2.40079046505234    0.55161247065150    3.15390143212540
