30
 energy: -57.472505502516 gnorm: 0.135569353912 xtb: 6.4.1 (79825abcba525fcdf90b791dcacef51065a7a4e7)
C         0.59251692323407    1.27681113129853   -0.51033288529027
C         1.75624044668788    0.34925254085471   -0.18505730887449
N         2.88972201235031    1.17247610871027    0.25920417992307
C         3.82818241630954    1.85446783436541   -0.59811188037442
C         4.29403464995531    0.67988287542715    0.25285753589136
S         4.73220384107491   -0.62037666290410   -1.02437098504743
O         3.67614186701408   -1.59677455708023   -1.18675661060228
O         6.06021227486984   -1.18144700439577   -0.87566011219625
C         4.86773913510088    0.55986618263088   -2.38739807526161
C         4.96360839803104   -0.20314437009739   -3.69139379252097
O         6.12020692226383    1.18228538785661   -2.02256239079673
C         3.80751808509254    1.60543235408083   -2.05458175058940
O         3.04242638637221    1.97808175135025   -2.92965420779577
S         1.51360574814100   -0.71077717927941    1.32758064412341
C         1.42111951450588    0.45038247394480    2.67030386809880
O         0.24973652980116   -1.36092755134713    1.03797960914228
O         2.70417474757202   -1.51237461099247    1.56923482617664
H         0.54902535576484    1.62122663686866   -1.54511797309365
H         0.61235154003664    2.23729303039485    0.00993996405261
H        -0.36994098804784    0.92022456121864   -0.12618686163717
H         2.04031493211596   -0.32966866459370   -0.98160252388524
H         4.04108615415864    2.86928678936105   -0.27305232185352
H         4.75191164436795    0.82251813674259    1.22298134858641
H         4.36610355539590    0.21417807509683   -4.50849633823498
H         4.67261108031274   -1.21543619409247   -3.38639256799720
H         5.98118605382598   -0.25345546991910   -4.09009059484786
H         6.76779216107400    0.48030179022814   -1.79068649538956
H         1.08352834135565   -0.09584241120759    3.55189799097310
H         0.69782697863295    1.25588785595130    2.53947699774037
H         2.44531693580254    0.78041046623473    2.86201523176880
