30
 energy: -57.481660412798 gnorm: 0.127555677758 xtb: 6.4.1 (79825abcba525fcdf90b791dcacef51065a7a4e7)
C         0.57790789307518    1.78533291232670   -0.08194604555973
C         1.77069464139129    0.84047716066833   -0.15215262257378
N         2.98176496245606    1.59556865394440    0.19854851322321
C         3.97780701235466    1.98194185965988   -0.77069214115855
C         4.28469851952474    0.87723854031930    0.23243558569661
S         4.44797285857690   -0.62598001634540   -0.87556047175002
O         3.19093972428354   -1.23859170813332   -1.24914238498735
O         5.61846467617474   -1.41765180613179   -0.55349536125543
C         5.01888385048002    0.35072072405098   -2.28598669838879
C         5.09645325191331   -0.48299279215090   -3.54721055286061
O         6.27715674911515    0.87489064788020   -1.80517331875347
C         3.95056026662029    1.43045522445768   -2.14141102447860
O         2.95535152780112    1.50826833377016   -2.84389902175948
S         1.75716343000233   -0.61003598629400    1.01679420599661
C         1.04197166687467   -0.05316496415346    2.54589410708086
O         0.86140500721580   -1.63850606764220    0.52303737561417
O         3.11539486034586   -1.00728798056844    1.35709989802905
H         0.48488250444923    2.33538230673093   -1.02007486114491
H         0.67279767332170    2.52215557928267    0.71911014109537
H        -0.34912285483785    1.20343133091864   -0.02670184865952
H         1.77212622515330    0.39370690707625   -1.14033827545693
H         4.38672990339494    2.98261779702097   -0.65988156643965
H         4.87112130621994    0.79100957010446    1.13786879876942
H         4.09962742308284   -0.66191411098405   -3.96332599250143
H         5.36427496118850   -1.51121025550747   -3.27613804839914
H         5.78603332475347   -0.09314386878583   -4.30183083654459
H         6.82470404272201    0.15068148854329   -1.42883955939161
H         1.00898702942348    1.01869786818012    2.74479032351243
H         1.52609526290267   -0.58543124572383    3.36529854452040
H        -0.03319027796961   -0.24400545648558    2.59342072159806
