30
 energy: -57.474869338907 gnorm: 0.123850287987 xtb: 6.4.1 (79825abcba525fcdf90b791dcacef51065a7a4e7)
C         0.81484756978635    1.96086868481897   -0.09917902345554
C         1.74751295917976    0.75715448607465   -0.13954019790800
N         3.09488408992371    1.20806054078820    0.23611958052744
C         4.22352884692840    1.76644070754395   -0.46757385031764
C         4.35308454400506    0.41341089821857    0.22042551722591
S         4.46309121306319   -0.91350220366621   -1.09911219176243
O         3.22210522615060   -1.59230543085869   -1.40598155767360
O         5.58042909314401   -1.80013216790959   -0.84227637674154
C         5.02360805296796    0.30837139422746   -2.30825718581248
C         4.94094750148331   -0.16809761693332   -3.74280427782018
O         6.36661006693981    0.53483040070112   -1.82426523392618
C         4.35020858672850    1.62511925626558   -1.93308755978448
O         4.11573422563821    2.46871075726217   -2.78359323538508
S         1.39071797109728   -0.53192303425298    1.15721910314234
C         0.91573022719423    0.34812019008066    2.62679784034131
O         0.19883285597215   -1.23244772157437    0.71835158245434
O         2.67926642039192   -1.16743906607106    1.38996788329087
H         0.96436615946939    2.75514635962716   -0.83270536519962
H         0.75901156023226    2.43623604668467    0.88291615128645
H        -0.18879257627501    1.61838490042812   -0.37569066745938
H         1.54190536154583    0.22053915518356   -1.05926088752673
H         4.62435431407572    2.62180098453767    0.06959174322454
H         4.85381741818594    0.11432021514032    1.13198878658883
H         3.91157905785804   -0.38124452706554   -4.04906500538366
H         5.39277812149177   -1.16722928774660   -3.74779611043926
H         5.43068220999803    0.55993650223887   -4.39631852386803
H         6.68300730425890   -0.34281129515614   -1.51515055335836
H         1.68593763807196    0.96144896928218    3.09599500139055
H         0.58389274052206   -0.39944278130170    3.34800527886533
H         0.06246856050287    0.97523082869317    2.35600482767265
