30
 energy: -57.469347892326 gnorm: 0.130576523222 xtb: 6.4.1 (79825abcba525fcdf90b791dcacef51065a7a4e7)
C         0.93561401719026    1.48122436822552   -0.52864202031600
C         1.87616300740400    0.37896989213827   -0.05872258127923
N         3.09666613762584    1.05650339199573    0.40080544074898
C         3.89444504159120    1.76946806684789   -0.56668720452646
C         4.47594062251110    0.55720903104109    0.14962864560430
S         4.94416983027928   -0.70662310907201   -1.15324099702888
O         3.98785741401970   -1.78223062858042   -1.30661595810176
O         6.32907849679404   -1.09523704744383   -0.97567843807747
C         4.89413922250601    0.54628907877306   -2.45588976830372
C         4.67779205487569    0.00978006000932   -3.85486540128209
O         6.10371316396378    1.31127864310598   -2.25363214359210
C         3.72182093407525    1.40346310859307   -1.98795116810249
O         2.80789679514264    1.90161661415519   -2.62557997198447
S         1.38983186998130   -0.68706306167395    1.38960886285147
C         0.87227003022306    0.43364336451193    2.66863112478034
O         0.20626363484967   -1.49603897434061    1.16903263880066
O         2.50972817967664   -1.40875929600703    1.97560931300256
H         1.23992382447205    1.86883514029633   -1.50252453918491
H         0.85875730840822    2.20714716481708    0.28421212593305
H        -0.03854016599181    1.03710164899649   -0.76279157393120
H         2.01861849214245   -0.38581578836776   -0.81431898855292
H         4.11261256473555    2.81921252705544   -0.38980136747873
H         5.09982822580664    0.60806946073758    1.03241613304092
H         3.84710236853317   -0.70350868238912   -3.85419752660680
H         5.61992174194097   -0.45611572743112   -4.16755165147064
H         4.52197344130361    0.86016745167839   -4.52532530077925
H         6.71782713276611    0.67004060793985   -1.83221565192884
H         0.01155985348566    1.05245863175850    2.41214861109454
H         1.68042093402552    1.11897488380359    2.92615686822688
H         0.69976374934380   -0.19073451149690    3.54899805489207
