30
 energy: -57.472092967954 gnorm: 0.139407918914 xtb: 6.4.1 (79825abcba525fcdf90b791dcacef51065a7a4e7)
C         0.92928441965718    2.25986097134397   -0.02193098805896
C         1.85933195503599    1.06872390698739   -0.21330938203395
N         3.14557475155606    1.45002138265977    0.38672165848127
C         4.40540485155016    1.59387432894098   -0.30098924598793
C         4.10784874331076    0.31836240956939    0.47705135434485
S         4.13518666556277   -0.89086336756776   -0.95508177089442
O         2.97213267455956   -1.29629720470850   -1.71529073409419
O         5.02809051793318   -1.95626857028460   -0.54501381499542
C         5.10364684708544    0.06542287434856   -2.14537053457967
C         4.93486513957756   -0.38400385168044   -3.58109655080950
O         6.45450945201999   -0.06794551480633   -1.64881299147096
C         4.63066125865523    1.46270007044628   -1.75556917389960
O         4.47163260693664    2.29813858938893   -2.63120444729140
S         1.34801440959170   -0.36845245162530    0.85612349746356
C         1.36906380359012    0.41973011878739    2.44925759655478
O        -0.00378157645346   -0.76567158457693    0.51145809709885
O         2.40216749433790   -1.37138812531742    0.82019251347042
H         1.28488433520847    2.99210960287946   -0.74901720858127
H         1.00404152766775    2.63757288164201    1.00049153247065
H        -0.07060871429040    1.92472419943507   -0.32016653374874
H         1.95651542101171    0.76578107750932   -1.25008208786869
H         5.05275053684616    2.24403904429274    0.28131527790193
H         4.71826632444948    0.01510942361839    1.31762511681366
H         4.38662430723491   -1.33168243083554   -3.56829295601474
H         5.89828083896322   -0.56237602253004   -4.07349220742741
H         4.39513992715163    0.36509335269997   -4.16804178437642
H         6.64619542388603   -1.00352737620867   -1.41674163833127
H         1.54969098600389   -0.34063492838169    3.21001803123910
H         0.44344613391952    0.99611437803588    2.46020283832040
H         2.27140692753073    1.03408263095959    2.50402946914332
