30
 energy: -57.470587320505 gnorm: 0.136340800568 xtb: 6.4.1 (79825abcba525fcdf90b791dcacef51065a7a4e7)
C         0.76616198704866    2.08622434212725   -0.13588989361397
C         1.88257506296306    1.05316397364089   -0.21853224702301
N         3.19200198344396    1.44221795988261    0.32357811160097
C         4.39561482346232    1.76446094722872   -0.40325573702135
C         4.33593646802478    0.49749078643667    0.44057041981547
S         4.30584573477325   -0.86996992847717   -0.84127409981748
O         2.96745308691958   -1.04334498849767   -1.36437547975368
O         5.09101190480292   -2.00656288188888   -0.40287723614685
C         5.08115185597694    0.08668825959673   -2.16524213893715
C         4.71114341776893   -0.37963422058408   -3.55715375323870
O         6.50005361101047    0.11256519191877   -1.89095307233092
C         4.52897984626835    1.47272168360294   -1.84577156090116
O         4.12783942345133    2.30291198540790   -2.64568103644659
S         1.53234218909684   -0.46117380012256    0.80846640961101
C         1.18364589341427    0.24751587327619    2.40092392520872
O         0.29095188474146   -0.98346203161754    0.26986193349106
O         2.65550038664015   -1.34038745638526    1.09813645784899
H         0.62514311828199    2.74270720298222   -0.99637676539928
H         0.95387598958814    2.69113995387613    0.75430293742109
H        -0.21784812161677    1.63036499727014    0.02210926904820
H         1.89861329248576    0.56601483947581   -1.18731763765517
H         4.98232894343042    2.57887905324691    0.01308404152948
H         4.75061387017787    0.39040919761207    1.43440765142484
H         4.01947249670969    0.31054857172040   -4.05118379465710
H         4.11893006450513   -1.30235935741007   -3.53978741222860
H         5.63919994010474   -0.62092227758846   -4.08388499241779
H         6.54567562285726   -0.81368727227528   -1.56554709740281
H         1.51864191328448   -0.39939700286755    3.21260059750834
H         0.13029368373164    0.47734668658196    2.56442806193493
H         1.69719882980229    1.21194720698565    2.42898928930876
