30
 energy: -57.468429456241 gnorm: 0.128468759319 xtb: 6.4.1 (79825abcba525fcdf90b791dcacef51065a7a4e7)
C         0.82959781135922    1.83851083478382   -0.23513522080863
C         1.74101708532169    0.61906398913176   -0.18330987850856
N         3.07592532627946    0.95905725284498    0.32881350014805
C         4.13081774299487    1.56128839534939   -0.44921677692272
C         4.33263574480912    0.17986859491652    0.16050931402240
S         4.60077079891693   -0.95511659866353   -1.30710508263815
O         3.35686874558859   -1.37909189149824   -1.91368686913519
O         5.67438501189335   -1.91808749117883   -1.16371459149427
C         5.26445687059849    0.44032508611602   -2.24596031308624
C         5.47653625123221    0.14670002901917   -3.71585401945846
O         6.51301312601533    0.70694808608520   -1.56831309375699
C         4.13844203479746    1.41695624930525   -1.91988337521858
O         3.28785420368949    1.83733695720255   -2.68784502631934
S         1.20070493496841   -0.40045751182105    1.27930656966011
C         1.19733672574488    0.67698752878970    2.69311417301441
O        -0.10651749985795   -0.94352399734141    0.96279754141139
O         2.21161838634047   -1.37648766529527    1.65855432735816
H         0.90812456491718    2.51221373131735   -1.09026777979904
H         0.81695782362233    2.46389813986594    0.66059558640872
H        -0.17887711491850    1.42098981657687   -0.33363345509998
H         1.76822477440263   -0.06396420970409   -1.02524147747841
H         4.68074222283800    2.40195219740032   -0.03482966459331
H         4.89003459704014   -0.04357874877623    1.06079493405405
H         6.48450733885150   -0.27743587161911   -3.76998031037036
H         5.31623049548535    1.04722185049039   -4.32067005497048
H         4.64662674278318   -0.54214825398844   -3.89941023377398
H         6.64843856522722   -0.04247769679838   -0.94707643179051
H         1.02004576766004    0.05730478789697    3.57294304256120
H         0.38477062955446    1.40408618548480    2.68005409249566
H         2.08181968870041    1.31778275501198    2.73462858914144
