30
 energy: -57.475017807707 gnorm: 0.130218157615 xtb: 6.4.1 (79825abcba525fcdf90b791dcacef51065a7a4e7)
C         0.35477078524156    1.25431537100499   -0.21089118919703
C         1.71658328887838    0.57235804243777   -0.18221220797294
N         2.79089975969836    1.51571509497136    0.15803381212789
C         3.79117401985611    1.99426831065198   -0.76459812690166
C         4.12727042660103    0.86201077876415    0.19761243342176
S         4.44568832185576   -0.61408135085065   -0.91312690299503
O         3.27362800643032   -1.28292522193833   -1.43649228523367
O         5.64617361641748   -1.36407157457218   -0.60188588052426
C         4.92428811833789    0.49869892183502   -2.25545627389726
C         4.98156972949363   -0.21258355237422   -3.59058806723756
O         6.19981025457425    1.02188124440825   -1.82127907665004
C         3.85720407107604    1.58691142649785   -2.18355921712127
O         3.13584006423457    1.86290829659183   -3.12878108502423
S         1.83814703371413   -0.69594736447573    1.17691686129552
C         1.57505964994256    0.18276081874807    2.69954881209622
O         0.72347422534043   -1.59413207731784    0.94303993000597
O         3.11377483106543   -1.38591371221053    1.29992048306443
H         0.08609753154951    1.23438580400876   -1.26858265094558
H         0.45986773399375    2.29127667362501    0.11662768931354
H        -0.39141276159548    0.68053445451700    0.35038677638827
H         1.95103218491431    0.09724643898649   -1.12847817535550
H         4.18165286510465    2.93892240403684   -0.39581075834809
H         4.72087170729616    0.99673715733537    1.09238766344271
H         4.04474571535685   -0.72049079736673   -3.84201922679015
H         5.85885586676650   -0.87022183711304   -3.60850015180207
H         5.23482507308579    0.49428838203204   -4.38629431470972
H         6.59072112105150    0.26991997603064   -1.32362760311749
H         0.58278219042105    0.59514044909480    2.88627349305778
H         2.30405564191322    0.97638544869415    2.86637648742590
H         1.70673032329749   -0.54191855255331    3.50710978377333
