30
 energy: -57.466562707985 gnorm: 0.124675404657 xtb: 6.4.1 (79825abcba525fcdf90b791dcacef51065a7a4e7)
C         1.09782894221729    1.61359084236883   -0.76023721023010
C         1.95507005134741    0.47043812163201   -0.23225888408891
N         3.15488356681358    0.97704903301064    0.44865130281352
C         4.35551759549134    1.54398027775175   -0.11515572866614
C         4.36916841014999    0.11717174901338    0.41855594815435
S         4.65469261337140   -0.95829270891604   -1.09003012319780
O         3.41455573329980   -1.62499320820933   -1.42552944619967
O         5.90355553525536   -1.65034009050760   -0.84116654740838
C         4.90390735548160    0.36897430195782   -2.29229470802928
C         4.24862238446811    0.30380571466790   -3.65542915167739
O         6.33832757956540    0.50416864719159   -2.40782571210265
C         4.42519645745612    1.63525514012313   -1.58843910703586
O         4.16996306642565    2.61640774950962   -2.26827744641486
S         1.25480525974274   -0.51953060844185    1.18202514702035
C         0.87212024549261    0.57787395913672    2.52701826768104
O        -0.00330903766696   -0.92616483371078    0.58559687124006
O         2.29532791233594   -1.37344313421062    1.73569990362338
H         1.48008171723183    1.98584733385125   -1.71239352903963
H         1.17776052284689    2.43384135588690   -0.04301843990664
H         0.06037591261658    1.26551853033134   -0.82010587568349
H         2.21633916116449   -0.24843080039301   -1.00107779746464
H         4.79741591595345    2.27313297285650    0.55857376972757
H         4.85520354766698   -0.16332451783511    1.34388188134244
H         3.16053607112311    0.33178388588001   -3.53663509756066
H         4.78236456760444   -0.49252317528609   -4.18780073591769
H         4.55671296145354    1.20324856738167   -4.19675842647782
H         6.81647475615780   -0.12099124110754   -1.81921341602881
H         0.74338983910595    0.01857587266526    3.45446193486051
H        -0.08656934183150    1.06088611180940    2.33539306452961
H         1.69312555852164    1.29767867215259    2.57685331120205
