30
 energy: -57.479322788031 gnorm: 0.120626730558 xtb: 6.4.1 (79825abcba525fcdf90b791dcacef51065a7a4e7)
C         0.98260373387063    1.91588495444804   -0.29328101806469
C         2.02253445139269    0.80924288360202   -0.17366053567068
N         3.28921360900858    1.25092289784109    0.42657958279471
C         4.41173098089790    1.71919818562838   -0.34897496561560
C         4.49575964597303    0.38124840534779    0.37465965656187
S         4.49054717146067   -0.90029871727809   -0.99340080017566
O         3.16923236110531   -1.39152903489768   -1.32174329747948
O         5.55291221103882   -1.84598321874208   -0.71486424443012
C         5.02399074421807    0.28940404209321   -2.24609036084349
C         4.59099627533701   -0.14573334625258   -3.62990829982214
O         6.42808764638828    0.49301391490546   -1.96997225377369
C         4.32331565264029    1.57509457806467   -1.81702360434322
O         3.65087660504357    2.32644748794963   -2.50497657151125
S         1.39792459068917   -0.50946961979695    0.98455708658719
C         1.04859406565104    0.34675078400719    2.50264993707859
O         0.10819416991199   -1.03261080467169    0.57608627049169
O         2.45060896038013   -1.49543882210996    1.17982632891894
H         1.20454486102859    2.63599649649829   -1.08288549507619
H         0.81029014067662    2.46971556112875    0.63256043941849
H         0.01355277663749    1.44486434598715   -0.49359877283369
H         2.15922287465209    0.39634058936036   -1.16711139065720
H         4.77515423618706    2.68826206386120   -0.01778341903128
H         4.84607549217954    0.23231970457206    1.38769239036719
H         5.36515481360920   -0.71183778581705   -4.15814210444437
H         4.51271134023501    0.74187741190794   -4.26901590743576
H         3.61692040301351   -0.61967458010824   -3.47657684538211
H         6.80940588704339   -0.24165113124154   -1.44008763119407
H         0.88091221751984   -0.44543231340424    3.23331152837184
H         0.13398709681699    0.88511221272459    2.25211501395165
H         1.83928452686190    1.05096168819789    2.77384668794852
