30
 energy: -57.473456448926 gnorm: 0.128313841162 xtb: 6.4.1 (79825abcba525fcdf90b791dcacef51065a7a4e7)
C         0.51864514596758    1.29895523382915   -0.22179384229273
C         1.73498202973723    0.38240259918102   -0.19217153374316
N         2.93791562081413    1.12143399582189    0.21603048848266
C         3.85923413038475    1.85545583077101   -0.61655343259586
C         4.33624388330397    0.61867475012907    0.13421398969605
S         4.64158086285881   -0.69575528994728   -1.16694803816020
O         3.45229307846084   -1.43835813983440   -1.52628690363252
O         5.88127139948296   -1.36707368066001   -0.83076318192172
C         4.99615290981696    0.63820220283725   -2.33486152187313
C         5.09797457501528    0.01467925162801   -3.71059126445482
O         6.23488027561445    1.19166334473962   -1.83644244246172
C         3.83080476159619    1.58663354665045   -2.06937010771903
O         2.98285259922268    1.75517982569111   -2.93108586179441
S         1.55792169202191   -0.70380212694627    1.31096423031175
C         1.14676311609818    0.41805529682400    2.62707047417172
O         0.55935150991430   -1.75315528400315    1.23582962393814
O         2.95363932872439   -1.04375726878965    1.54508494299261
H         0.35885669822087    1.79446701185823   -1.18107975236907
H         0.74685042932942    2.11518450687590    0.46762246453401
H        -0.32053349939153    0.75346147271794    0.22459514962289
H         1.90751500554691   -0.31791253541410   -1.00205283090369
H         3.97846308036789    2.89618570668553   -0.32756399308393
H         4.92556077710001    0.71201449649586    1.03705924647998
H         4.18465968629231   -0.54153342669129   -3.94577204912276
H         5.97661333590530   -0.62176883320321   -3.86986362904901
H         5.19701749071438    0.83512613958977   -4.42753759288744
H         6.68205514486580    0.39712792838164   -1.46947902159253
H         0.13686556503178    0.82757856156953    2.67106200725039
H         1.90202142612376    1.20001786311585    2.54206392680371
H         1.35059442682284   -0.07956832542737    3.57863529482867
