30
 energy: -57.473204713329 gnorm: 0.135267921627 xtb: 6.4.1 (79825abcba525fcdf90b791dcacef51065a7a4e7)
C         0.84398214471464    2.04057617327098   -0.16288407854233
C         1.79462846629788    0.85170098190622   -0.22005865912264
N         3.08650241609381    1.31914478449586    0.30186449345464
C         4.23303433065801    1.73925972408743   -0.46610650698489
C         4.28999912069582    0.44431670739755    0.33432753087398
S         4.44453783489316   -0.82750380400236   -1.03409132804771
O         3.22649025860303   -1.46090232173168   -1.49251825711656
O         5.49217479034052   -1.75456575135197   -0.65523223727147
C         5.05373128451612    0.29896477347124   -2.31046812279207
C         5.07330450675310   -0.32383218907902   -3.69014985591735
O         6.39555036799197    0.53297394110013   -1.82678686458822
C         4.22153001660266    1.51907990296899   -1.92731787423844
O         3.38184159702553    2.12021928434501   -2.57811700194244
S         1.37861532152388   -0.44038953417287    1.05588935646614
C         1.24517402310852    0.21237576069880    2.70387054279961
O         0.13895589288331   -0.98890469921101    0.53984160510475
O         2.55235299336697   -1.29408781087257    1.16520019208695
H         1.25467835853572    2.96245683344705   -0.57852623542742
H         0.60069518340637    2.15619466679958    0.89591077624180
H        -0.12281503123306    1.85990421055861   -0.64631788216918
H         1.82426057513094    0.25322874232753   -1.12397762928704
H         4.77708293208686    2.61412536093669   -0.12046148354834
H         4.92815194723743    0.26181688562761    1.18907381089547
H         4.15091157931218   -0.41420443870975   -4.27311707088261
H         5.41703765235996   -1.36358209285070   -3.63351431537844
H         5.81616339983449    0.25996268462984   -4.24178274377827
H         6.74044898251675   -0.33421996711348   -1.51867371188299
H         2.18794900081195    0.73720035169122    2.86284259338866
H         1.37485806169507   -0.72390881663095    3.24761673666774
H         0.37420009303511    0.80461108210669    2.99595583401608
