30
 energy: -57.471015481407 gnorm: 0.136153598512 xtb: 6.4.1 (79825abcba525fcdf90b791dcacef51065a7a4e7)
C         1.26984092438845    1.73319081309708   -0.57036074969207
C         2.07201479693004    0.52706932552199   -0.09896955637419
N         3.27010650642278    0.91310213190657    0.65958201151859
C         4.23890795740626    1.59613250580646   -0.16243081314683
C         4.56099936443497    0.21856027032624    0.40269690447494
S         4.72869857562379   -0.91412310831823   -1.08151498865353
O         3.64990499321914   -1.79182859299212   -1.48254658511617
O         6.05825119342544   -1.47347342426553   -0.94031185592823
C         4.94485356964384    0.39729487728942   -2.30733949606190
C         4.36861543344805    0.07510352490147   -3.66966221269817
O         6.37495276538171    0.60022481273008   -2.25421671465392
C         4.28655821079454    1.60085489859613   -1.63940646842338
O         3.78039360088741    2.53996576130497   -2.23257838145625
S         1.09415268267051   -0.46416191020087    1.13871155151350
C         0.93378025041436    0.59212277384831    2.55937845396020
O        -0.21258268459537   -0.80130901029140    0.60701222069380
O         1.88738594460929   -1.65926436403015    1.38553303454424
H         1.75953909746607    2.35665437881785   -1.32054913250406
H         1.06821146151482    2.40103808245509    0.27042953689663
H         0.29196597116618    1.32140502537342   -0.84466061565428
H         2.36511789794593   -0.18252389868058   -0.86492298170804
H         4.61835859331661    2.53227396223736    0.23820055808914
H         5.21650959577397    0.05940156211397    1.24893038610156
H         3.35325876383109   -0.29723062819998   -3.49865126742306
H         4.89246778014078   -0.76981441212643   -4.13240655057873
H         4.31056905123239    0.89351768706500   -4.39339110568908
H         6.76005431183781   -0.30372739646830   -2.27615404466093
H         0.66387802217406    0.04549733448623    3.46375173933304
H         0.27434390960515    1.44682824208477    2.40533638777214
H         1.94479328641635    0.96517675874353    2.74195842543925
