30
 energy: -57.472014324748 gnorm: 0.125226008574 xtb: 6.4.1 (79825abcba525fcdf90b791dcacef51065a7a4e7)
C         0.76337786037054    1.98561277833575   -0.15647521255366
C         1.80125047478964    0.87895434541880   -0.29267059008772
N         3.09772320116100    1.32455726569145    0.23689716946313
C         4.32806652140904    1.76518860246028   -0.37376737331052
C         4.27696000786830    0.42323228803656    0.34550924452330
S         4.47940524619015   -0.89366914916632   -0.97311357579770
O         3.22972646653244   -1.41189038277263   -1.48764107640188
O         5.55363972573435   -1.79833254898345   -0.61516709482218
C         5.06049703662705    0.27219063309137   -2.22702311649515
C         4.63125194967323   -0.26675048060206   -3.57501123793881
O         6.45956994768877    0.43760345888033   -1.90388245575467
C         4.38710443791076    1.58531280115910   -1.83934206098592
O         3.85067718690030    2.30757441342183   -2.66430795011194
S         1.44558409510897   -0.47509471980660    0.93641880901852
C         1.16963566971038    0.23847162265272    2.54092080033131
O         0.17562051442660   -1.14658919829399    0.73587620743414
O         2.67574279365190   -1.24161789044030    1.06893874363113
H         1.03524092488690    2.84347014549500   -0.77410369258817
H         0.80952515052194    2.36349028319535    0.86757641696321
H        -0.21193331329533    1.50947372672933   -0.30848538436039
H         1.82150223246761    0.63728628669747   -1.34969615770118
H         4.54909912548455    2.67439431427673    0.17880724012436
H         4.61643723435857    0.19624620863044    1.34769125548316
H         3.72284439661457   -0.85501757652102   -3.40898662342009
H         5.40867983767679   -0.98901863723364   -3.85137062726177
H         4.54573599737190    0.57553140243397   -4.26797796489946
H         6.82466569989409   -0.43599710775510   -1.64036550069990
H         1.92458810416712    0.97302432599749    2.82379315802943
H         1.22130287744403   -0.60276780608467    3.23284088694485
H         0.18259873023475    0.70547313827697    2.49275706820245
