30
 energy: -57.472032717628 gnorm: 0.124953889365 xtb: 6.4.1 (79825abcba525fcdf90b791dcacef51065a7a4e7)
C         0.92114919048244    1.70350521263587   -0.62560077703978
C         1.77458755906168    0.49374762956096   -0.26706043496546
N         3.09048711315762    0.83759599455279    0.28973590713006
C         4.23800553937181    1.45282400617549   -0.33115684558050
C         4.34497835501030    0.03940550878230    0.22707470260712
S         4.59000645309699   -1.02469307569522   -1.29661655642263
O         3.35318719167436   -1.40216927183223   -1.94683089272795
O         5.50585186425428   -2.09972681871785   -0.97096198398229
C         5.34214211687408    0.36814088035275   -2.17039647725671
C         5.56709791669438    0.04537384147300   -3.63224365551266
O         6.60082687823320    0.46778359154757   -1.46685521909536
C         4.32896986803802    1.44925855331545   -1.80610183547155
O         3.60507672845737    2.15557737851401   -2.48953229009697
S         0.95492513687780   -0.19149595703154    1.25911220952562
C         1.40250080463739    0.93230150021963    2.56161226534363
O        -0.48485790556723   -0.33767910498025    1.16120948443532
O         1.67831872303839   -1.38517626866307    1.67171221016568
H         1.15824236111330    2.21535408881878   -1.55999431395953
H         0.91780617969565    2.36528113526597    0.24367718410768
H        -0.06077084620665    1.22971216874542   -0.73695861760330
H         1.84444687816897   -0.25218914876088   -1.05116159471604
H         4.66318037429683    2.35688467573843    0.09633556201328
H         4.82331241413469   -0.40627196871419    1.08945764435459
H         6.48934515507014   -0.52498231484052   -3.78383691839742
H         5.74416922372510    0.95019485619197   -4.22586357316742
H         4.78151837732240   -0.52256165411338   -4.13946026927796
H         6.91496950588813   -0.43655534652758   -1.24459514970795
H         0.92037611336742    1.90276859479083    2.43797156235482
H         2.48833081552865    0.95219250037358    2.66002069313192
H         1.07546674455097    0.43449621963583    3.47806777803042
