30
 energy: -57.469727057333 gnorm: 0.138002305559 xtb: 6.4.1 (79825abcba525fcdf90b791dcacef51065a7a4e7)
C         0.55805391919409    1.24498877170285   -0.41929246776617
C         1.83479410600666    0.43866566003914   -0.21879532957248
N         2.98360267424179    1.20684333904012    0.28119238456890
C         3.93738466630168    1.91611050854141   -0.53615175799302
C         4.38231396394020    0.69879840102537    0.26447687233421
S         4.75235748437782   -0.70132990800482   -0.92577029754864
O         3.64793744143442   -1.61716061189541   -1.11681825080705
O         6.03902283665313   -1.26405256915485   -0.56750122029592
C         4.87766852441565    0.47645390468094   -2.29189923615304
C         4.56502699016453   -0.19052709146856   -3.61446207776784
O         6.24842090394439    0.92339902083329   -2.18960417908989
C         4.08164652914195    1.74424358107123   -1.99676821996099
O         3.43078594789616    2.41106395539427   -2.78525777994427
S         1.45657554627377   -0.71891289288797    1.19101699492545
C         1.35825013830517    0.46383326906642    2.51434413906739
O         0.18993206878085   -1.37425640396379    0.92631177975719
O         2.72159737162967   -1.43098174236443    1.29631401959408
H         0.61976413204059    1.85058493676220   -1.32523886254838
H         0.30257569096660    1.78853900361313    0.49333382420120
H        -0.24186023243678    0.54941406005696   -0.69743011587663
H         2.04831513488380   -0.25156733295411   -1.02756215466206
H         4.13096065737529    2.93746392692701   -0.21958458485915
H         4.82214666436074    0.62262601421223    1.25031730734193
H         5.46571801616637   -0.48698627760252   -4.16190546058323
H         3.96108824032263    0.51804757755216   -4.19378914229631
H         3.96274205048324   -1.07380422183143   -3.38202069749551
H         6.75835607301695    0.16640782621326   -1.82512578691849
H         1.99149412543950    0.28477191391641    3.38410083300184
H         0.34290694689955    0.35997365388583    2.89826869799597
H         1.54993812208721    1.41917563304557    2.01913835869052
