30
 energy: -57.470464093279 gnorm: 0.133053683293 xtb: 6.4.1 (79825abcba525fcdf90b791dcacef51065a7a4e7)
C         0.41883007337543    1.62979694264129    0.19495655680269
C         1.62417480231814    0.74808724282365   -0.10529951825040
N         2.88162406175967    1.48642098600105    0.07781292701574
C         3.88977365857686    1.89981635152090   -0.86746507235408
C         4.19937015835041    0.79737288688736    0.13731643718687
S         4.32320911363356   -0.68348872800001   -1.00535255739417
O         3.06717367243966   -1.14558751059300   -1.55655899020241
O         5.42450907667073   -1.45554897716448   -0.46536864429732
C         5.04852689555128    0.39488167723489   -2.26241946909143
C         5.44250952180779   -0.20130310882770   -3.59700638593008
O         6.17608235863888    1.00801613789836   -1.59768560339977
C         3.87612545344894    1.37124884332626   -2.24738538230773
O         3.01290432008268    1.59712727932059   -3.08033973808786
S         1.79345545803493   -0.66701118794402    1.09447075090304
C         1.44074899287849    0.03023882507939    2.69108957416223
O         0.72499536475465   -1.59320087867644    0.77121334344553
O         3.19018914045458   -1.07633349052969    1.09447116075999
H         0.08796932998602    2.14340440491763   -0.70949480843854
H         0.64705256166204    2.43517428397276    0.89701392999074
H        -0.37159572028341    0.94815500304891    0.52908034599040
H         1.59384207893758    0.11570262675117   -0.98580292912837
H         4.17561284915288    2.93385246938534   -0.69450730599990
H         4.80363812124961    0.67988574454175    1.02736881242759
H         6.43510628284068   -0.65951390430121   -3.53683024646043
H         5.44402995917632    0.60855263363222   -4.33631098321911
H         4.84242790259485   -1.08570864682976   -3.83085147888497
H         6.54477705419439    0.28728706881819   -1.04043532370550
H         0.56110818688131    0.65499900867140    2.53157660144088
H         2.35622965298240    0.54081618751740    2.99161012439909
H         1.38226672877788   -0.83430280941006    3.35727248272228
