30
 energy: -57.465695083366 gnorm: 0.131439704823 xtb: 6.4.1 (79825abcba525fcdf90b791dcacef51065a7a4e7)
C         0.58042782149958    0.87952105830087   -0.59994944455243
C         1.81055875185786    0.07509069841930   -0.19983538193371
N         2.87323022350621    0.96266001638602    0.29290778898635
C         3.73392645664845    1.76760316419210   -0.53900564832256
C         4.30186479207518    0.55803744708830    0.19257747283057
S         4.91130531702115   -0.64216169149084   -1.11206198035678
O         3.82153281159607   -1.58281498543172   -1.26224886738658
O         6.26351187598318   -1.11916094031149   -0.90103973421940
C         4.85905764545929    0.55952664267684   -2.46202537561489
C         4.63779739635289   -0.07127803708733   -3.82030009405172
O         6.13429513740411    1.23226949561209   -2.36017894729822
C         3.88883825607491    1.64414635117377   -2.00342052422876
O         3.56682175514146    2.57971350500632   -2.71826608230506
S         1.44233525008679   -0.69444224356770    1.45631639006331
C         1.04982210738631    0.60409664323786    2.60500315838550
O         0.24927396870818   -1.51900981174340    1.43136100910067
O         2.72029880510450   -1.23921902933638    1.89040985218830
H         0.59147988863681    0.99058393047597   -1.68569187476364
H         0.48100846974995    1.90632983669774   -0.24025199548846
H        -0.28670811774325    0.30337268232223   -0.25764009456148
H         2.12318794136890   -0.69829169585747   -0.89284278040798
H         3.75270692960918    2.80455808744181   -0.21462773326073
H         4.88242053570726    0.53646701593458    1.10560877188018
H         5.27268600776142   -0.94223789978391   -4.01310050568855
H         4.94668508284489    0.62095111511451   -4.61266813995557
H         3.58133754315605   -0.33428201168541   -3.71224399393457
H         6.87924753567149    0.65769673106446   -2.07587962226212
H         0.34588388322687    0.14350818004645    3.29916946917649
H         0.68548328344422    1.55651830807626    2.21866538298480
H         1.97363483282932    0.83864741238952    3.13998733150962
