30
 energy: -57.474808774840 gnorm: 0.127978171365 xtb: 6.4.1 (79825abcba525fcdf90b791dcacef51065a7a4e7)
C         0.75858761132727    1.74688722854997   -0.21622169878977
C         1.86086804941620    0.70800937508355   -0.05456707997244
N         3.11772617699327    1.31364430684616    0.40734174268915
C         4.12287552465321    1.80209621800934   -0.50474431103163
C         4.35681090900172    0.50330653413431    0.25633166448143
S         4.56099891331132   -0.77200200075959   -1.10229824329006
O         3.42474309511395   -1.53937075805825   -1.56604033936502
O         5.77148666838898   -1.52872654532227   -0.85208111411313
C         5.12763328068106    0.42835618730393   -2.32999997882802
C         5.11581406768816   -0.17615475680671   -3.71787881893595
O         6.43478398446193    0.89040765491328   -1.92128029247914
C         4.05731043567047    1.44205350866415   -1.93646377389947
O         3.15011379789011    1.71033195114432   -2.70782985549964
S         1.36254630647259   -0.56646818392340    1.20954943149853
C         0.94215717354826    0.36986496963417    2.66086066744433
O         0.20417904594630   -1.27753764734529    0.70309590337706
O         2.54994110720622   -1.35047443976629    1.51587851547548
H         0.73182230410424    2.23983177260834   -1.18966046447077
H         1.06337653635026    2.53853237594074    0.47225807438795
H        -0.25164526144381    1.46509702243393    0.10169527829850
H         2.05895146590500    0.13648320450415   -0.95469895771691
H         4.58972663644140    2.75820891546344   -0.28395525093751
H         4.99784280698315    0.44267013202589    1.12612343892487
H         6.12284890575128   -0.16967235019292   -4.14760599267490
H         4.40107455590651    0.41429662927239   -4.30350200291815
H         4.83589424822209   -1.23369678966715   -3.70358280975894
H         7.11984017622733    0.18621899804622   -1.89425450574433
H        -0.12412645703221    0.48705472536249    2.85794796499415
H         1.32383452190041    1.39077614652066    2.62666339625233
H         1.38969870721439   -0.12286895198746    3.52779315523376
