30
 energy: -57.466950458487 gnorm: 0.133035756654 xtb: 6.4.1 (79825abcba525fcdf90b791dcacef51065a7a4e7)
C         0.92592726189159    2.08700284156801    0.05847542592591
C         1.97454285841463    0.98255667091450    0.02645118458286
N         3.32649776553030    1.36940445216114    0.45354895997795
C         4.38971192316436    1.67697771653766   -0.47153795062908
C         4.45632985265618    0.40490825229085    0.36405667384569
S         4.37074915640012   -0.85304580599199   -1.02310132685801
O         3.01420727718375   -1.28623547148942   -1.28219528072166
O         5.44973413497981   -1.80678400302634   -0.85971184318181
C         4.99649350857550    0.17911469582100   -2.36930879162616
C         4.99465135742257   -0.27344505791072   -3.81394269968331
O         6.37896935494737    0.44992693829854   -2.04587786136161
C         4.24072974657261    1.42618207901293   -1.92021183940464
O         3.67010590134561    2.16931362361769   -2.70259833236181
S         1.52928258885526   -0.46520478662478    1.11104245644097
C         0.41159781229144    0.06187835472092    2.38881990318755
O         0.60047031416529   -1.32220928760635    0.39915713465479
O         2.75687701588938   -0.90548342866906    1.75724394896933
H         1.18958283057146    2.87765615506417   -0.64625630676459
H         0.71251773829679    2.43878101558237    1.07055804156937
H         0.04720617347753    1.61827961702232   -0.39890315634509
H         1.99046355557824    0.71977280310223   -1.02559813385692
H         4.89754519351596    2.60514960639468   -0.22364370494370
H         5.03800725159741    0.15476877973491    1.24167736019218
H         5.91620684465429   -0.79424701522850   -4.09381308996167
H         4.91967923144441    0.62670591281401   -4.43567200781358
H         4.11625829777162   -0.91158125159926   -3.94871088380228
H         6.90530367043812   -0.37765346688706   -1.98265678244159
H         0.00719552467323   -0.79489214881979    2.92913528947340
H        -0.44281230848475    0.57368953254391    1.94481613460562
H         0.93509757830784    0.70211070471760    3.10345450440444
