30
 energy: -57.467172266641 gnorm: 0.136697460201 xtb: 6.4.1 (79825abcba525fcdf90b791dcacef51065a7a4e7)
C         0.56138985505553    1.56887865265199   -0.17059075387477
C         1.73804569681092    0.60588208185723   -0.07817746817955
N         2.96629658214103    1.33199080735203    0.27397542815616
C         3.88870129492604    1.87452783189683   -0.69330662997459
C         4.36466600189272    0.82347338816363    0.30145928526721
S         4.64136544312054   -0.55158906840144   -0.94217266303356
O         3.41208776416951   -1.26577060604419   -1.21385253896596
O         5.78499682092986   -1.41894802588817   -0.74138181209950
C         5.01626593372627    0.43461405038882   -2.41051828555008
C         4.90513059595805   -0.27882662706279   -3.74109417161398
O         6.36881277609859    0.84836330911861   -2.11283574644825
C         4.05808596926103    1.58921326985892   -2.13332559746580
O         3.41246125259405    2.05274097518970   -3.05976797419439
S         1.57055081765298   -0.73687084219719    1.20227878608098
C         0.92957181433650    0.07525305996564    2.64773780851967
O         0.65267082982296   -1.79320137894054    0.82071385935473
O         2.90207011996364   -1.09865588210735    1.66550406791933
H         0.38907814465229    1.73614806340010   -1.23530825250264
H         0.81108810427132    2.51677681226217    0.31184327298910
H        -0.36241059631119    1.19952403661183    0.28899305122192
H         1.70324508814064    0.00520695235773   -0.98044954105148
H         3.98666957260166    2.95351720369764   -0.60944127533181
H         4.97180907657757    1.04791300578251    1.16871964883457
H         5.38554951426246   -1.25151488846697   -3.59310147058648
H         5.44955440950078    0.24787369084663   -4.53395570341440
H         3.84804309125201   -0.37013518852798   -4.00789631997964
H         6.64754206379163    0.14893650031903   -1.48115056620679
H         1.47991968352423    0.98779214843352    2.87996023978721
H         0.94211721652875   -0.72694307283492    3.38627058389349
H        -0.12274480861729    0.28773398748216    2.44247295317989
