30
 energy: -57.471740093086 gnorm: 0.142878301612 xtb: 6.4.1 (79825abcba525fcdf90b791dcacef51065a7a4e7)
C         0.88090221457579    2.07991282489929   -0.08944712197760
C         1.99403198660327    1.04656185961008   -0.20584953516481
N         3.25518675569473    1.43558880849121    0.44067364783939
C         4.39254906696488    1.75426798080523   -0.38737369274941
C         4.35284202775991    0.43311323458908    0.37011621670550
S         4.19604928545377   -0.90438314688599   -0.93391563810762
O         2.93333405076568   -1.37572335192199   -1.46153055464225
O         5.16177548949394   -1.92004955105685   -0.56470578002727
C         5.05456319648428    0.10045816084972   -2.16778501749834
C         4.79591284522855   -0.31623305121752   -3.60000332224713
O         6.43056827498153    0.19199345838479   -1.73486745788129
C         4.52886752682111    1.49377432180632   -1.83558301799563
O         4.10606355900816    2.21113734283878   -2.72811416958294
S         1.48321137425740   -0.39947784099097    0.85180810632593
C         0.97645964579443    0.30622761834203    2.40259293631990
O         0.34823754060842   -1.17750775622550    0.39307777890194
O         2.72557475686875   -1.10041880418440    1.14098749578412
H         0.66141405473708    2.74017150316002   -0.93038537845930
H         1.26202974380744    2.70315282861152    0.72290528150178
H        -0.07920081173039    1.65063829980734    0.21872966796000
H         2.18586659203121    0.61298343538778   -1.18120888295099
H         4.99927101786922    2.56079495460743    0.01543127414525
H         4.80930033665729    0.28712818695691    1.34041021848289
H         4.35679763931112    0.47640389496104   -4.21460167816277
H         3.99451165906753   -1.06451947332227   -3.61623578233979
H         5.71029900048027   -0.75371070676788   -4.01166567580947
H         6.59315808785885   -0.73883680917557   -1.46462014597893
H         1.41469321382886   -0.22946365450166    3.24551868814539
H        -0.10903518245736    0.33843932529933    2.50143658511654
H         1.35180977326655    1.32490135690591    2.52935324879248
