30
 energy: -57.469707845742 gnorm: 0.142412355149 xtb: 6.4.1 (79825abcba525fcdf90b791dcacef51065a7a4e7)
C         0.02432453310856    0.33443025772390   -0.05263820596020
C         1.51639645098468    0.05222096005676   -0.17305809724372
N         2.43165897157234    1.19613813342265   -0.05646680744275
C         3.28140536722071    1.94449581461077   -0.95016904135629
C         3.90269472402264    1.05824000762345    0.12191660685854
S         4.68980619632818   -0.26818947750094   -0.94345656520140
O         3.91855841797519   -1.47244089347857   -1.16693863993910
O         6.04037839898314   -0.43324285702042   -0.44422378310984
C         4.74996347897386    0.63616594646492   -2.50797189229903
C         4.88223322671928   -0.22774785608650   -3.74406998628220
O         5.74927370008885    1.67294371679580   -2.38284301298500
C         3.43674915799259    1.38738843309875   -2.31004022087916
O         2.59280402136532    1.63673000649490   -3.15595400347538
S         2.13611295586404   -0.78872773376108    1.36946092380140
C         1.78018518717919    0.26933491121101    2.75277938413384
O         1.32849767493012   -1.97373386485467    1.58728584027638
O         3.58773042486374   -0.89180886093318    1.34515591468561
H        -0.28411363611420    0.93946823423676   -0.90709046865782
H        -0.16917168733993    0.93090255528411    0.84200291210833
H        -0.55805373264047   -0.58873830086623    0.04555924280218
H         1.73341462487498   -0.61547683109648   -0.99961687014875
H         3.28268735823674    3.03067519673559   -0.91758354395503
H         4.35159945538478    1.43347112707889    1.03231344879823
H         5.54364515423705   -1.08775691010552   -3.59660703924460
H         5.44216069210569    0.34639269860231   -4.49192276616875
H         3.95484831574866   -0.69384875498799   -4.08999167194050
H         6.56907405370767    1.16472237149792   -2.19428933813153
H         0.72946210002147    0.55611507514635    2.69554517651331
H         2.47792127508907    1.10545618353779    2.80910213715998
H         1.93845780394966   -0.25564229051142    3.69829553781366
