30
 energy: -57.475501040395 gnorm: 0.145385872127 xtb: 6.4.1 (79825abcba525fcdf90b791dcacef51065a7a4e7)
C         0.63371020137949    1.94115949264830    0.29707085625873
C         1.79352566667144    1.06282546409063   -0.15434807824062
N         3.10931317367617    1.54172088796465    0.29197908160232
C         4.22116012057299    1.85818891636046   -0.57083966990329
C         4.24777103186292    0.58366513024246    0.26324572605993
S         4.24056106563097   -0.79428299819273   -1.00765418418480
O         2.92146706584351   -1.08249522669708   -1.52910751761126
O         5.04958269833181   -1.93187581886676   -0.61792627772173
C         5.11860311014489    0.17116306342949   -2.25911010047250
C         5.29804444512327   -0.29954773136204   -3.68670002595933
O         6.41935876141760    0.37936049950311   -1.66423628058416
C         4.25228776311118    1.39426967527297   -1.97353705485686
O         3.56583520645820    1.93023357680120   -2.82882082586584
S         1.59969201120304   -0.46856273365763    0.88867009190100
C         1.32886980486007    0.11600854327050    2.54537853131988
O         0.41182038078888   -1.17833850405220    0.45380343273098
O         2.76418241724915   -1.31200002868245    1.11446945026947
H         0.70069102553392    2.92957588933201   -0.16101245872192
H         0.57890927410795    2.09236371751825    1.37768959555607
H        -0.27662610024816    1.44176973607852   -0.05356437171033
H         1.73655840004925    0.81220004884283   -1.20794110299422
H         4.83033469108983    2.70638996725094   -0.27032272126245
H         4.79740257983166    0.54284840522537    1.19457565075655
H         4.33205580773729   -0.63614906171331   -4.07707437008637
H         6.03644940498084   -1.09512105605742   -3.53094019924270
H         5.66871430914901    0.54116123005124   -4.28064188157851
H         6.61959821098463   -0.45340121831910   -1.18223407289432
H         2.01399045528045    0.91718966912806    2.82512148655283
H         1.59042372420373   -0.69425312712168    3.22668041440599
H         0.28250130778546    0.41250615426857    2.65425559789623
