30
 energy: -57.474018117544 gnorm: 0.133628299612 xtb: 6.4.1 (79825abcba525fcdf90b791dcacef51065a7a4e7)
C         0.73578420717972    1.24619972706430   -0.46803476081162
C         1.85779981945180    0.28672175381427   -0.09266221546619
N         3.12455999249966    0.82841759205200    0.41893339433785
C         4.00796539489364    1.58012176122657   -0.43859049436173
C         4.51646399803684    0.32598806805670    0.26097718535847
S         4.93354734207827   -0.72557923168393   -1.23375606634402
O         3.87491670136589   -1.64278988247430   -1.59846776166370
O         6.27595487638857   -1.21612221867397   -0.99327561794493
C         5.05024337631839    0.59049256155329   -2.46806676717860
C         4.91440522986974    0.16010068112524   -3.91308983870142
O         6.23128316848434    1.30308219261002   -2.03615551605038
C         3.88786140400222    1.39956853981027   -1.90034481867413
O         2.93267583995081    1.81037608494608   -2.53975266996115
S         1.24782790083251   -0.57827225369689    1.44041567030149
C         0.90401919408882    0.72716429017985    2.59686804859103
O         0.05699973038829   -1.30352990458521    1.04059161477730
O         2.37691734418586   -1.28713326053662    2.02443864127784
H         0.80995491521118    1.36368306944786   -1.55061967908962
H         0.85328732910905    2.17878264763919    0.08881786048179
H        -0.23378860900690    0.78048773648671   -0.25806267356375
H         1.87653976742801   -0.57104690666368   -0.75598591259043
H         4.17451278544306    2.57225227825511   -0.02775204126143
H         5.14973056657502    0.37314931526386    1.13726803515857
H         5.79641208276336   -0.35999253262336   -4.30089596410661
H         4.77975003660624    1.02069646117668   -4.57918503071644
H         4.06846560859179   -0.52739478291409   -4.00631417390922
H         7.02256673567623    0.73397798675577   -2.16226960278138
H         0.99696285120867    0.36587202442034    3.62174218626860
H        -0.16383767234342    0.93843491555242    2.53242335472769
H         1.58766671984130    1.57427699684506    2.49849018977762
