30
 energy: -57.470572756904 gnorm: 0.135906262378 xtb: 6.4.1 (79825abcba525fcdf90b791dcacef51065a7a4e7)
C         0.73266711692982    1.92377618163468   -0.34635308519799
C         1.79276946245208    0.83609307309395   -0.22994816678360
N         3.07143654093527    1.25470887873401    0.36133589563134
C         4.19985422549728    1.74576256980950   -0.39122748067692
C         4.28318307044177    0.39265582617797    0.30373720404778
S         4.35755108053406   -0.89831567587500   -1.05340744372869
O         3.06377889940909   -1.30033394959789   -1.56284212914740
O         5.34991105161935   -1.93284144400788   -0.84010157946921
C         5.13343747627085    0.28758118021229   -2.17627643955066
C         5.01442187179429   -0.29843013422665   -3.56703409921451
O         6.51906490997289    0.30676767152214   -1.76535699127670
C         4.50027943345854    1.63286989975899   -1.83370793604497
O         4.03372379125541    2.35985133456740   -2.69615131348196
S         1.37464056607690   -0.41332866777267    1.08714018521858
C         1.23926088189105    0.48447251852694    2.61533404414812
O         0.10822281456544   -1.05752251924600    0.79536968112833
O         2.52642876180876   -1.29272897472762    1.22296647302054
H         0.97551125310197    2.51288657337590   -1.23250736075820
H         0.61908047062460    2.39112802214168    0.63460718519844
H        -0.17902738945394    1.33544016238701   -0.50037006660911
H         1.92832091924532    0.29375644748400   -1.15925619746744
H         4.59422804011251    2.60950908675607    0.13722345016345
H         4.83024140708409    0.08535980925042    1.18545857691911
H         4.63591187110198   -1.30941463342617   -3.74997439977184
H         6.01903340359630   -0.24620199016485   -4.00346028367304
H         4.32848541109268    0.34585496017204   -4.12501485369642
H         6.71209620456928   -0.62697810979948   -1.52708869899619
H         1.69621275379143   -0.04353755964010    3.45315142699843
H         0.16742023990216    0.45513083656342    2.81383690778930
H         1.70118756423368    1.46553908022132    2.47827850009989
