30
 energy: -57.472882157533 gnorm: 0.131714117951 xtb: 6.4.1 (79825abcba525fcdf90b791dcacef51065a7a4e7)
C         1.08676706274474    1.77585893250565   -0.54964189610969
C         1.95402329156523    0.58917656064399   -0.14955038524085
N         3.23636135190547    0.84026009022621    0.52306517831314
C         4.30467060846595    1.45774173063673   -0.22409182440771
C         4.49863974494718    0.06741519054206    0.36767295979419
S         4.64105827443270   -1.01977982390855   -1.15275579348066
O         3.46359944766006   -1.75002820353637   -1.57146435923363
O         5.90000253897616   -1.73436567436081   -1.08241614485207
C         5.03048939849416    0.32525365855020   -2.29661512397388
C         4.85676816559708    0.22819547500145   -3.79734211006087
O         6.41699805458836    0.52729080421650   -1.94170522229588
C         4.31679856618143    1.53458987326339   -1.69979409828267
O         3.66331842069795    2.26364191122997   -2.42878763928784
S         1.13324368740529   -0.36042464467279    1.22710737385236
C         0.86619031922406    0.86667483995611    2.48514570892055
O        -0.17205002699121   -0.86805699029673    0.84968534607438
O         2.09663264314820   -1.33048875263845    1.72637391009800
H         1.34548775025589    2.10228555184948   -1.55850412413683
H         1.26063165375054    2.52389016938776    0.22741865145954
H         0.01928375249752    1.53496472732166   -0.49050868356182
H         2.11370766239965   -0.20974547719589   -0.86533044948416
H         4.77317219250987    2.34981978199036    0.18278914755961
H         5.03268401622606   -0.24864108303092    1.25426271705662
H         5.79533285673859    0.35053740185546   -4.34775595869067
H         4.16074987624660    1.04836029632291   -4.01024614922045
H         4.34463506780400   -0.71564190428971   -4.00673486256763
H         6.81330459179216   -0.37124703585120   -1.98023991353298
H         0.10714949597767    1.57284800781351    2.14645099596594
H         1.77146941803326    1.40817009443295    2.76147762109615
H         0.45102757436650    0.30458235350945    3.32558845681372
