30
 energy: -57.478438250804 gnorm: 0.133764529097 xtb: 6.4.1 (79825abcba525fcdf90b791dcacef51065a7a4e7)
C         0.70396819891795    1.69269646196848   -0.47329240528501
C         1.74667205484768    0.61133346682215   -0.22061795868944
N         3.03551501521837    1.10240363554788    0.28690487318650
C         4.19204300647003    1.63076545599581   -0.39433563851503
C         4.26430899111074    0.26297397436107    0.27255383368675
S         4.60397657934615   -0.92585822229109   -1.13644706845391
O         3.36063999270693   -1.40944550788814   -1.69791507003357
O         5.60535441860806   -1.88591061678824   -0.71684834313810
C         5.15505381589513    0.38083617434654   -2.25807511319033
C         5.07676598364873    0.04941693719094   -3.73313889129692
O         6.49882392231962    0.72501079860515   -1.85185838644987
C         4.24031297251769    1.53817870307417   -1.86839386063836
O         3.44729791109107    2.07548781398610   -2.62497219979322
S         1.32684675746529   -0.44278871231209    1.25694129298610
C         1.34327857516813    0.62918813103120    2.67480826203196
O        -0.03081514857558   -0.87930862276954    0.99211270095618
O         2.37652104983726   -1.43187686120301    1.45264065832025
H         1.13588489075181    2.32609939617366   -1.25017233343390
H         0.53975665611864    2.23360210012334    0.46161848931205
H        -0.20663120979479    1.24029902085752   -0.88218437758335
H         1.76660241069488   -0.16024656212262   -0.98244712460695
H         4.45279423660115    2.56018541910830    0.10469988813022
H         4.72569287300720    0.01824438406243    1.22037691522569
H         5.93366358400832   -0.45848860287296   -4.18765522341198
H         4.94070474684855    0.92269658942494   -4.38222279347907
H         4.24141206844461   -0.64257402215705   -3.87557126716513
H         6.94553625205798   -0.13055435689291   -1.66646582173813
H         0.31277736487210    0.80724337788933    2.98448746309472
H         1.81129329693764    1.58761958363235    2.44792050584961
H         1.85678645214473    0.14030830269449    3.50664854373032
