30
 energy: -57.473494290588 gnorm: 0.130117279868 xtb: 6.4.1 (79825abcba525fcdf90b791dcacef51065a7a4e7)
C         0.34731412660966    1.21964203397525   -0.27439272770984
C         1.64892089412177    0.44340328117485   -0.12046155983273
N         2.71639664824990    1.40609278259405    0.18543089383308
C         3.60746262560911    1.90771204974499   -0.83201247460435
C         4.10728154769631    0.87689884033327    0.17218982049284
S         4.61255202678081   -0.54273658984934   -0.94285134210476
O         3.63650505023657   -1.51884285212196   -1.37821061059245
O         5.94119171421657   -0.96335468840328   -0.54495908089713
C         4.92311501126887    0.52370164524470   -2.36954190479229
C         5.12407547735197   -0.25716331619640   -3.65080911052968
O         6.16010820994586    1.22099928664461   -2.09970838507616
C         3.72749444619455    1.46213999431826   -2.23586719490430
O         2.89899989303562    1.80601413479091   -3.06371503504601
S         1.73912192462613   -0.74828230261015    1.30864915000053
C         1.49081095785969    0.25974508158263    2.75155370558900
O         0.64362711069746   -1.69406281257540    1.21210896678312
O         3.06042845694015   -1.35824265179764    1.33116911726396
H         0.13502538289176    1.89791974632987   -1.10274444618925
H         0.26763708233806    1.95831435324296    0.52661757189989
H        -0.44970407469532    0.47488896668956   -0.16878858859030
H         1.92347577403825   -0.17095113341140   -0.97093488189069
H         3.84958420215682    2.94556212397242   -0.61965997075137
H         4.80242284506431    1.09641901961096    0.97201846669255
H         5.51725753180381   -1.24633798162134   -3.39435641702730
H         5.77141578578847    0.39394396041871   -4.25035040368688
H         4.17060943656120   -0.42106915721579   -4.16168288842294
H         6.84610977244849    0.56942787650030   -1.83368094788485
H         2.13378709751233   -0.22158326587337    3.48941705920971
H         0.44161651375631    0.06756852963692    2.97819411304269
H         1.70134349602501    1.29935321433865    2.48784352169241
