30
 energy: -57.471538166208 gnorm: 0.136899287923 xtb: 6.4.1 (79825abcba525fcdf90b791dcacef51065a7a4e7)
C         0.81266875325553    1.21633534164665   -0.62513182413268
C         1.90580037659241    0.26660634746274   -0.15237430943159
N         3.07001648371718    1.01739284404819    0.33830509126898
C         3.97413241757799    1.81742566225531   -0.45120953288224
C         4.49164106757575    0.58187677945528    0.27433910839637
S         4.97439925806227   -0.59039769044856   -1.10649285115651
O         4.08563065174406   -1.71541101919798   -1.30504814534006
O         6.35415969768775   -1.01817222904974   -0.98905637165031
C         4.85556348793021    0.57634006612538   -2.48264215433129
C         4.53049965602810   -0.11281685770105   -3.79076183171895
O         6.16745725041843    1.15873987839540   -2.31254948256279
C         3.87726477857794    1.59721944991922   -1.90924795035675
O         2.92342521121654    1.96078767691756   -2.57857068610077
S         1.30447234261051   -0.61311094104630    1.37573244722703
C         0.92957739624767    0.51758065930086    2.69510403448790
O         0.17582074945845   -1.44898647980788    1.01325854110316
O         2.42052210659706   -1.32844450388900    1.97668215172345
H         1.06015614200286    1.69787136081348   -1.57284844305326
H         0.70015552021269    1.98438824724524    0.14365828584179
H        -0.07073797690966    0.60135727919561   -0.83114617234583
H         2.25265853555857   -0.56847931791047   -0.75107118461421
H         4.37040906525786    2.77411600641885   -0.12172866109879
H         5.04528260654840    0.55224117502535    1.20371479806182
H         4.81989510189818    0.50584516713938   -4.64652710639916
H         3.48393112623734   -0.42694252230518   -3.88273629369684
H         5.16953828195057   -0.99895241315227   -3.84862412074314
H         6.77543214314871    0.40667670365821   -2.13738797226859
H         1.13938772933163   -0.03710577367453    3.61044015195382
H        -0.11548762644554    0.81124418249895    2.59162690545957
H         1.47754947155493    1.46327423922081    2.68859729113032
