30
 energy: -57.474561733735 gnorm: 0.128110404711 xtb: 6.4.1 (79825abcba525fcdf90b791dcacef51065a7a4e7)
C         0.56366178636958    1.62148786062452   -0.27340157804569
C         1.76799985522411    0.69255792355388   -0.18925513021230
N         3.01221748700068    1.31476249691051    0.28469578586573
C         4.03131280634820    1.80406158814416   -0.61131926621183
C         4.31173691204438    0.58975397749127    0.26482959630288
S         4.67555559858450   -0.76172777227358   -0.98221195634291
O         3.55588892660243   -1.57611938062320   -1.40423293169924
O         5.91708772345420   -1.39659851455065   -0.58716969160503
C         5.04761278130595    0.41088993405229   -2.30725044822678
C         5.01846910720390   -0.16187439613325   -3.70827597060179
O         6.28164415251125    1.10164975321527   -2.00858048355528
C         3.88695853261525    1.35633594732677   -2.01219526055272
O         2.91031551273074    1.54157465602546   -2.72060176939828
S         1.53811066862128   -0.55791251144036    1.17239197851617
C         0.98124437209569    0.39290851680284    2.56723619883196
O         0.48069453991826   -1.42161403233505    0.68267728615728
O         2.75747822709093   -1.17580271010349    1.67215611002238
H         0.83218130488668    2.45147007896835   -0.92938977390130
H         0.49019600822315    2.09831587936826    0.70682316213603
H        -0.35363994648807    1.13116539157152   -0.61863885680898
H         2.00017787367395    0.05493797499986   -1.03521659192988
H         4.63790221563103    2.68388066821415   -0.41429952565612
H         4.82391706653585    0.62799584434057    1.21737634927345
H         4.29278583545746   -0.95965228808994   -3.89738137850268
H         5.97957439492414   -0.64022281343342   -3.93165757378133
H         4.84249738397124    0.59388103618878   -4.47952321514169
H         6.86927303064232    0.36105055091000   -1.74003036355110
H         1.74949314430463    1.13105479955718    2.80062752733941
H         0.84542605612952   -0.37211823748746    3.33234673549402
H         0.02290398515677    0.89771129750006    2.42091485397429
