30
 energy: -57.473157344299 gnorm: 0.139610749997 xtb: 6.4.1 (79825abcba525fcdf90b791dcacef51065a7a4e7)
C         0.53222112218577    1.33097770286988   -0.40320781221366
C         1.84650610131938    0.57772822506359   -0.24292120206383
N         2.87320437026596    1.46619210112567    0.31954509751250
C         3.83685373798846    1.93859444166820   -0.64431558624632
C         4.18169607756108    0.75997236256480    0.25721136203307
S         4.51145169249254   -0.65798235878168   -0.92373972093080
O         3.39350615594549   -1.50896389332441   -1.27161474583702
O         5.78228680470584   -1.30901326804541   -0.67542918025098
C         4.87759077982742    0.47038348802650   -2.28826107440610
C         4.89482871086239   -0.15879247704235   -3.66507671426332
O         6.14326470400393    1.06218470868011   -1.91808931079791
C         3.77064734559618    1.49354229393819   -2.05190055561990
O         2.86383025107753    1.78483241384395   -2.81532541701786
S         1.78237801666229   -0.63237509482319    1.17205078846085
C         1.36948931614326    0.15109440475384    2.71330013994687
O         0.77605805639631   -1.60586307190232    0.79314319735469
O         3.12372764249129   -1.10102674063808    1.48757661013857
H         0.68004035634789    1.89879062820280   -1.32355105747283
H         0.24265813524683    1.99273452494228    0.41644694021521
H        -0.32117693395336    0.66946379926026   -0.59071379452515
H         2.04375371176230    0.10185425524548   -1.19725549458208
H         4.23883599692766    2.89992044420739   -0.33591357724153
H         4.81679592995952    0.82342364415773    1.13114414036181
H         4.74680342491264   -1.24309175528216   -3.69986494139200
H         5.83579297029562    0.07972091005671   -4.17511352618745
H         4.08294556873772    0.30112441637060   -4.23628319844899
H         6.72107338978864    0.32914096465038   -1.61035885131177
H         0.47250767617918    0.70809699727899    2.43996943841264
H         2.25369691218607    0.77626909118902    2.84151956730032
H         1.24319456636078   -0.61093098330106    3.48661703790201
