30
 energy: -57.474191490721 gnorm: 0.125454058380 xtb: 6.4.1 (79825abcba525fcdf90b791dcacef51065a7a4e7)
C         0.61175116015965    1.00255803788829   -0.64692772195941
C         1.77446746617276    0.15312621860750   -0.14995890844687
N         2.89297805573227    1.02882806117845    0.22677157854304
C         3.89943955885426    1.76079418454677   -0.50266155107818
C         4.27487223233397    0.47642452544016    0.22552960460811
S         4.65040179254140   -0.70715262061079   -1.17878599797190
O         3.54056922000097   -1.48823591854099   -1.68194540684194
O         5.87457084438624   -1.46252546559126   -1.00174570363460
C         5.00491506082463    0.59872977844502   -2.37802631529442
C         4.98175172699579    0.21107290704862   -3.84123048886035
O         6.29401288729948    0.95661289804307   -1.83091319577528
C         4.01093401035089    1.68360406365482   -1.97417797437914
O         3.55156958545432    2.39417303841555   -2.85398523760063
S         1.48133814372522   -0.65005779514632    1.50520840483715
C         1.16811396754149    0.69121910003547    2.62887116782154
O         0.22191275203856   -1.36315399183080    1.40892152464278
O         2.69666012634456   -1.36678798481758    1.86255983064040
H         0.68999232717214    1.31780512418827   -1.68894083224713
H         0.55393464244345    1.84124810130310    0.05082506398195
H        -0.30692527806946    0.47819356094220   -0.36035683768178
H         1.98284449116234   -0.70402769770129   -0.78081770272189
H         4.07974386519629    2.72839420960331   -0.04212960086589
H         4.70341846559925    0.52303178932022    1.21815852412129
H         5.94878612058067   -0.18599038225644   -4.16682511000530
H         4.69529230021005    1.07730636600527   -4.44952360467909
H         4.26956046999810   -0.60464679873526   -3.99724205384591
H         6.78640224584799    0.12986892312693   -1.63101031053284
H         0.97768118226455    0.28921120766338    3.62469375830858
H         0.22923064554235    1.13078642395219    2.29066212232252
H         2.04023627431821    1.33894897029294    2.50845199270956
