30
 energy: -57.474767527723 gnorm: 0.134583792916 xtb: 6.4.1 (79825abcba525fcdf90b791dcacef51065a7a4e7)
C         0.40471637672809    1.49128481790437    0.12292749253451
C         1.66142156445458    0.68008823624033   -0.16529776805878
N         2.84813811944762    1.52094622182314    0.04566948818479
C         3.86354590233147    1.98929983387999   -0.86559544260993
C         4.22383736609314    0.97972659435751    0.21688753763855
S         4.51887603139992   -0.54211780971238   -0.83711504255064
O         3.31401897104063   -1.32003349810840   -1.03244934722907
O         5.68280595144273   -1.29328468987382   -0.41104377437461
C         4.93411088248020    0.37091151802068   -2.34148976397240
C         4.88653314372796   -0.51849175509486   -3.56561354051777
O         6.26368320660333    0.84901595662710   -2.03679338975670
C         3.99962580276151    1.57536398456172   -2.27764688891849
O         3.33622111971102    2.12784673369640   -3.14057318372188
S         1.81824643926613   -0.71846790842060    1.05538027193630
C         1.09488446655662   -0.13573227088337    2.57093882609958
O         0.93335904902225   -1.75079387072598    0.55020002696978
O         3.17297000253247   -1.02915349593504    1.48736205289398
H         0.31296063971431    2.33080587323981   -0.56850508619234
H         0.43748485434221    1.90879068255563    1.13199528074800
H        -0.42404018777232    0.77882665558983    0.20424968341126
H         1.56750476697172    0.36955449713623   -1.20012387061476
H         3.96634588732917    3.04537830906173   -0.63111823270049
H         4.84693004858182    1.29112321324061    1.04509277661055
H         5.69582619080039   -1.25383748039150   -3.50959515443106
H         4.93144568821966    0.17125248487657   -4.41689238437920
H         3.94580526813349   -1.07642644866713   -3.59196833387226
H         6.91175105130392    0.11390363785872   -1.96241603150379
H         0.02058549998312   -0.07010937521678    2.39455008200325
H         1.49531525295576    0.86386394643685    2.74289600340435
H         1.33241120153332   -0.82924520115104    3.38166254379866
