30
 energy: -57.470446929982 gnorm: 0.132201453320 xtb: 6.4.1 (79825abcba525fcdf90b791dcacef51065a7a4e7)
C         0.60709708077177    1.90783134741828    0.28332326187748
C         1.78228285065047    1.02422811314673   -0.11492955753140
N         3.07873125795787    1.60904063197540    0.25528877613618
C         4.18378249442892    1.87867992368175   -0.63182332642971
C         4.22981400013572    0.66637758667486    0.28960014928127
S         4.19507964878921   -0.73827202872929   -0.95125953744948
O         3.03315487997834   -1.16609667017308   -1.70084991748269
O         5.12190218238121   -1.74824355216994   -0.48064422719415
C         5.11522673316950    0.25578170897757   -2.14891238726476
C         5.18633518119906   -0.43608160544904   -3.49354973239465
O         6.39400846168444    0.47091953162764   -1.51046167694011
C         4.26599362652835    1.52049185598881   -2.06314887179203
O         3.69503507076229    1.95548727940322   -3.05045327787046
S         1.57222476047893   -0.56175409698627    0.83960917565674
C         1.51394381225168   -0.09530102994586    2.55389502363357
O         0.22974100663667   -1.00366822060182    0.51345132195246
O         2.82659677748096   -1.29824516817051    0.78919613496143
H         0.55631378947023    2.74563887019652   -0.41438251156764
H         0.63190728132359    2.30295558420165    1.30158846291688
H        -0.33212650645964    1.38777357863662    0.06321794602962
H         1.66169980608693    0.57226939327639   -1.09335157079755
H         4.82348732586911    2.71076576597887   -0.35029160918252
H         4.72904963082419    0.51318839628184    1.23745734312485
H         4.38487068746304   -0.01253881242037   -4.10762855363398
H         5.22977405467761   -1.50909086346326   -3.27172971655136
H         6.14104661966703   -0.24566675343049   -3.99277201384360
H         6.50651146433844   -0.12172261649395   -0.73455420667687
H         1.70963930205384   -1.00021582232476    3.13041051908381
H         0.57424268998085    0.34443183104855    2.88960843472878
H         2.34221798712854    0.58804844753285    2.75797212450264
