30
 energy: -57.474063961998 gnorm: 0.134168694845 xtb: 6.4.1 (79825abcba525fcdf90b791dcacef51065a7a4e7)
C         0.98583487362437    2.23322405636315   -0.02254075120730
C         1.91828662741273    1.06238806357039   -0.30555732379696
N         3.22882960045650    1.34212010621371    0.29782720199803
C         4.50342216773986    1.62411183415375   -0.31593652757251
C         4.27335300198401    0.28467316422795    0.37238700063534
S         4.27877888670516   -1.04587257188351   -0.94806687016526
O         2.92205387861710   -1.26712282516194   -1.40120527067554
O         5.10832313238826   -2.19505838888850   -0.64516498341589
C         5.05523460995371    0.08329739102866   -2.12759115827257
C         4.95130257762905   -0.28519676138887   -3.59223822832051
O         6.44342698098230   -0.02450149358801   -1.73966378965904
C         4.62794731220580    1.50711669821504   -1.78377704227720
O         4.28983859796280    2.41156417561587   -2.53053132455954
S         1.34201367246136   -0.29758113008233    0.82978467450843
C         1.16915327986650    0.46725250393326    2.42505891328267
O         0.01962629585133   -0.72770209423961    0.41721074232880
O         2.36787964307686   -1.30716894456009    1.04598176988095
H         1.01893678653613    2.98741586512914   -0.81082541671403
H         1.14824818850278    2.67155693950354    0.96492516044642
H         0.02200099160819    1.71217361434650   -0.04658369311929
H         1.83220784786853    0.72987976592845   -1.33421920376808
H         4.99584599426829    2.47263778296691    0.15136608557570
H         4.56038735634804   -0.16907299255835    1.31199443276858
H         4.16871197817229   -1.03870315673960   -3.72864459429939
H         5.88365538737889   -0.71447333683846   -3.97808765852200
H         4.55434019672338    0.58709928079153   -4.11994564332402
H         6.56993249192865   -0.96172815402172   -1.47223793751286
H         1.23613210589321   -0.34571593488800    3.14902975329250
H         0.30727959200159    1.13368803963507    2.37875442266351
H         2.10517794692821    1.00913470322731    2.58277253088562
