30
 energy: -57.468863147192 gnorm: 0.132493018976 xtb: 6.4.1 (79825abcba525fcdf90b791dcacef51065a7a4e7)
C         0.29010333256262    1.16028418285616   -0.03874996931721
C         1.61825953344583    0.41977992365178   -0.12861723753338
N         2.72900629955081    1.36711490995030    0.04062764917367
C         3.65429109080059    1.94597042492364   -0.90255091818438
C         4.14676144626306    0.92000009599176    0.11020517418818
S         4.66612579627282   -0.54697040163307   -0.93489674889058
O         3.63033409395127   -1.46207037761036   -1.36468322354595
O         5.89683307169352   -1.08605670505927   -0.39151215667126
C         4.98132321805529    0.47170430046364   -2.39508107842050
C         4.98081747820740   -0.31145874040681   -3.69062584596074
O         6.07349586674658    1.31058906270868   -1.95619890511343
C         3.85290170097823    1.49384034561603   -2.29534752270737
O         3.13481707138720    1.81256504203127   -3.22956041485166
S         1.74559388241663   -0.76565018136980    1.30286786457478
C         1.42708098231400    0.24309630704865    2.73140948288593
O         0.71578283115879   -1.74293145683240    1.00564711388680
O         3.15573301198830   -1.11607887949902    1.38723072380181
H        -0.07028171758023    1.72587181426973   -0.89986957909251
H         0.27826825900299    1.90492246787373    0.76061007678641
H        -0.42142773872643    0.37455908083505    0.23947112511453
H         1.68516713284082   -0.26412414870530   -0.96761377188582
H         3.82186098421351    2.99626905030963   -0.67974527856552
H         4.80762960915136    0.99056746901402    0.96426017136177
H         4.79906386234873   -1.38261393338972   -3.55490994297184
H         5.71120499839181    0.04813778111477   -4.42524434198108
H         4.04818939099595   -0.00682542351230   -4.17473123320992
H         6.76552610681248    0.81519334940755   -1.46467954853924
H         1.97061639488510   -0.36072264030333    3.45908355618425
H         0.34606268401602    0.27723688042296    2.87047976302208
H         1.85358098468882    1.21948150816614    2.48764367851885
