30
 energy: -57.473456125597 gnorm: 0.140338821594 xtb: 6.4.1 (79825abcba525fcdf90b791dcacef51065a7a4e7)
C         0.86412136874181    1.98993758233802   -0.19232800485331
C         1.84036680093551    0.82143817409287   -0.14788013218462
N         3.14113397655667    1.20729331792243    0.41689070599570
C         4.23647440970401    1.61088063865266   -0.43055158334770
C         4.33390021633891    0.31852565191096    0.37016325920545
S         4.55644502754618   -0.88494456993918   -1.04973563070871
O         3.26242572046254   -1.30515452563485   -1.54362475908450
O         5.53776470188930   -1.90046437446446   -0.72377168993440
C         5.18863814875865    0.31551381333973   -2.24489978976623
C         5.17355318626109   -0.18893339875657   -3.67216511142060
O         6.48375895324110    0.72873944034848   -1.75388758750437
C         4.16912242509264    1.39403726262701   -1.89075451459247
O         3.25312681298003    1.85255343524787   -2.55460668685491
S         1.25896246416210   -0.48175937740555    1.04972303134833
C         1.26118478710040    0.45200509138136    2.56228049375581
O        -0.09481291064207   -0.86324683169624    0.69519627251163
O         2.34833417585537   -1.44699444750635    1.04921223912739
H         1.03509573387940    2.45191906215799   -1.16630675636419
H         0.95954335263316    2.71047960656805    0.62334138683272
H        -0.11929625788429    1.51370569797351   -0.10782747552531
H         1.76918693586785    0.40614790599758   -1.14717191099111
H         4.66358212560545    2.54772733246594   -0.08306575837353
H         4.86942566819245    0.22278410982493    1.30567505290785
H         4.16643476585502   -0.58710094326140   -3.83341561522468
H         5.99642937800395   -0.90810165730959   -3.58210006804700
H         5.44213353754963    0.61464644581106   -4.36432019636809
H         7.17529919379894    0.04041158509372   -1.87174726398420
H         0.26973057497021    0.80527919482378    2.84820631641896
H         2.05691499321817    1.19141015315933    2.46636242071268
H         1.56017656279797   -0.18748727246937    3.39672972241678
