30
 energy: -57.466933040312 gnorm: 0.129480624601 xtb: 6.4.1 (79825abcba525fcdf90b791dcacef51065a7a4e7)
C         0.77247434255476    2.03340463261691   -0.10388544447868
C         1.85581026726160    0.96280461495545   -0.07897543533046
N         3.20308823430950    1.40326631991542    0.30920118652181
C         4.40093908203308    1.73809186982282   -0.42145401883901
C         4.30403449088390    0.40193136124449    0.30387491585857
S         4.37644295319199   -0.92573684908548   -1.01750078424443
O         3.10600824868641   -1.30943756379152   -1.59521894423568
O         5.44293358144684   -1.90431844804829   -0.94335858867319
C         5.06386772895218    0.24054231974298   -2.21601065630571
C         4.97446826898020   -0.11850535762780   -3.68395934340166
O         6.38580860032769    0.38387280235015   -1.64934055323902
C         4.32961326814391    1.53607831729472   -1.88359392627903
O         3.60680265753316    2.06066472309978   -2.71566283786452
S         1.50883584233675   -0.44429520716392    1.09161716719576
C         0.92885992273930    0.24635163996117    2.62340891657741
O         0.37908936627740   -1.17396854411270    0.54831302863585
O         2.79112520757062   -1.11975849290897    1.22538211403094
H         0.45691998205150    2.27549758606967   -1.12030571902305
H         1.12772231491919    2.88346741491491    0.48330691397031
H        -0.15619404161118    1.58718399649432    0.26962432729380
H         1.84962943670421    0.32496100512463   -0.95603527272971
H         4.93795256730834    2.61794491955762   -0.07747111480481
H         4.77653752042805    0.12962659056157    1.23860870501694
H         3.99920117317419   -0.61523610295951   -3.71460717368695
H         5.83339890640565   -0.73853208728503   -3.96723471766128
H         4.91515014642915    0.68537028671710   -4.42370250278835
H         6.72189323759398   -0.53178210873234   -1.52877005826185
H         1.49185119290702    1.12359459201463    2.94438127660636
H         0.85043981814153   -0.56068060845813    3.35255630933093
H        -0.10837973045748    0.51158217616546    2.40332087712776
