30
 energy: -57.471307025786 gnorm: 0.144543801088 xtb: 6.4.1 (79825abcba525fcdf90b791dcacef51065a7a4e7)
C         0.58845033119719    1.28879299852677   -0.44544435774039
C         1.67216891532992    0.25679269173274   -0.16092543083615
N         2.90132994126857    0.94707986030371    0.25442059192186
C         3.79515899535972    1.66423530534164   -0.62168985922872
C         4.31526693763860    0.48684345934256    0.19320499606704
S         4.83349588655536   -0.65551491310239   -1.19979024382830
O         3.77048833369667   -1.55101671500007   -1.60362227670134
O         6.16509146448149   -1.13076182547848   -0.88117628634961
C         5.18366109551825    0.62864593802696   -2.42351450824732
C         5.28409776744757    0.05348606956778   -3.82025515817289
O         6.30555616680397    1.32377485800026   -1.83416441463405
C         3.91602386599102    1.40113000193292   -2.07079897194766
O         3.01898062578366    1.54354792020994   -2.88628368188704
S         1.32162967067995   -0.60161338453626    1.45489307429171
C         1.27643867997918    0.70036735507506    2.66425448720026
O         0.04151410593056   -1.27679472865812    1.35812551981654
O         2.41168879644827   -1.50939372565646    1.78064709535304
H         0.63796332099689    1.74981702693427   -1.43352281473156
H         0.30618493736554    2.01401965654688    0.32135109224666
H        -0.31369360102777    0.66947262852103   -0.50566047354966
H         1.68681899322398   -0.52504335708156   -0.91234702271368
H         3.88987872973789    2.71591080015130   -0.36506573138132
H         4.87743886938626    0.58926892172949    1.11223057364851
H         4.66473743571861   -0.84513185266585   -3.73247565853045
H         6.31076099090018   -0.25779268154461   -4.04720909233677
H         4.80662652807296    0.72436961498968   -4.54059613130128
H         6.79869429760054    0.59492809084506   -1.39654446778042
H         0.20850233160523    0.92087601566873    2.64362660927207
H         1.84800079586150    1.56081892638625    2.31490291044575
H         1.65952626690541    0.30742660155116    3.60950236237387
