30
 energy: -57.475971059673 gnorm: 0.127374195070 xtb: 6.4.1 (79825abcba525fcdf90b791dcacef51065a7a4e7)
C         0.87197496178840    2.04065283589855   -0.03615526078101
C         1.92192507494060    0.93741873319828   -0.06616942158739
N         3.23994417009658    1.39971226356995    0.39094778189825
C         4.31429493822557    1.76877838567587   -0.49808094869473
C         4.40015668117630    0.47238293272347    0.29740861641198
S         4.40767205417691   -0.84167782840119   -1.03944128094847
O         3.07365279884349   -1.35707449335695   -1.26248328594437
O         5.48692602166108   -1.78460903351450   -0.82354114446419
C         4.99184934489280    0.28354168276849   -2.32855096695494
C         5.03419227324956   -0.15543182161856   -3.77675336588514
O         6.33080748459865    0.38891449001188   -1.79444051593846
C         4.18082891461911    1.51876489494592   -1.94840168375944
O         3.46747635151316    2.18378864458287   -2.68246995610403
S         1.53576353388015   -0.48798049895779    1.06949094361949
C         0.71289469177733    0.10832046615173    2.52793639296677
O         0.49191316960718   -1.23885844895445    0.39830662575087
O         2.71440574189991   -1.20610885369398    1.53155581044424
H         1.17038594787579    2.80215903406433   -0.75889513631352
H         0.76660521479353    2.43965481351282    0.97542635521799
H        -0.07372593853468    1.67757068133697   -0.45432811579484
H         1.79397092035558    0.33429748396370   -0.95835162085926
H         4.93956182207306    2.59010404039382   -0.15850072377102
H         5.02447606715377    0.25144064983945    1.15329775796150
H         4.14120375445342   -0.12583406155459   -4.40962152617349
H         5.39798216637026   -1.18747233274335   -3.70611895600125
H         5.82784115216395    0.44426329714452   -4.23221121712872
H         6.69138143440891   -0.50974837791964   -1.96268296072885
H         0.82977679357129   -0.64023616272681    3.31249943716189
H        -0.34997873086960    0.27781046971059    2.35277958076134
H         1.13410415440450    1.03079723055683    2.93570015781088
