30
 energy: -57.472775677502 gnorm: 0.136154835047 xtb: 6.4.1 (79825abcba525fcdf90b791dcacef51065a7a4e7)
C         1.09617988058447    2.16819629563315   -0.33449912359420
C         1.89080825709015    0.87322407470130   -0.22479834549811
N         3.21209765741082    1.13415337493727    0.36338191291828
C         4.47759375186190    1.56926502659386   -0.17514287676340
C         4.34562186325091    0.17125144441478    0.41558422473413
S         4.39426564268395   -1.03464836885597   -1.01878644988986
O         3.17854094273138   -1.61646355185762   -1.54651116443174
O         5.44555621355669   -1.99557782842025   -0.75060001419357
C         5.01487000038678    0.16809565449540   -2.21772051181802
C         4.66861304238630   -0.07890053224557   -3.67060724281702
O         6.41421927513289    0.22925930287438   -1.86097562148597
C         4.56071767202660    1.50926182656056   -1.64933423956840
O         4.20535492245537    2.37819095952515   -2.42950356579911
S         1.24638501056886   -0.36893740795743    1.00498281989213
C         1.12616287624916    0.70004045326553    2.42010969411270
O        -0.01061704991928   -0.85693678230292    0.47044367503523
O         2.19614884876728   -1.41546011414216    1.35304690245693
H         1.48197338209331    2.71518855789607   -1.19662241752161
H         1.13680695483718    2.80630714632295    0.55137147217638
H         0.12008120173254    1.72514950884149   -0.56250853533663
H         1.97514893508355    0.42936397610429   -1.21069461548307
H         4.89219187518429    2.39132242775450    0.40207394355888
H         4.79676240656493   -0.22414987215203    1.31628751844386
H         5.47205328914313    0.22507264593880   -4.34951129147233
H         3.73169996907887    0.46685633785008   -3.83426314554106
H         4.43353549718447   -1.14094303270235   -3.78790561265921
H         6.70129902387215   -0.63514948800113   -1.49179178668836
H         0.94599038136563    0.20043346492231    3.37272102732527
H         0.35582346973686    1.42253454239730    2.14865772242554
H         2.05943395772008    1.25915789874608    2.52520418081334
