30
 energy: -57.473191914738 gnorm: 0.140309427172 xtb: 6.4.1 (79825abcba525fcdf90b791dcacef51065a7a4e7)
C         0.32732483625479    1.01262574808253   -0.12745285878705
C         1.74053450953784    0.44417822397850   -0.13874235399488
N         2.72555298602653    1.50852876296420    0.09946361157225
C         3.64731382000319    2.01964139156656   -0.88538798809621
C         4.12253801687013    0.99700218434344    0.13891103249082
S         4.51916006968579   -0.52453123921225   -0.88168027189229
O         3.45040734363285   -1.43843119346624   -1.22452620469823
O         5.80817743394905   -0.96333896159489   -0.38529002077574
C         4.79776318753841    0.43786380532837   -2.38679220048071
C         4.88470634406384   -0.16278303518301   -3.77367543465518
O         6.01991234250642    1.09996225883181   -1.99035383119366
C         3.70941852012837    1.50056713455565   -2.26758003455565
O         2.89511464076716    1.70222683043224   -3.15427463415864
S         1.99040421894477   -0.74643626470402    1.27214760259633
C         1.26573735783260    0.15625896383112    2.62112883437872
O         1.25068943852279   -1.96879306427697    1.02195654793025
O         3.41212121417897   -0.94394220702626    1.51323247416779
H         0.08496116989400    1.69558979347267   -0.94361074414600
H         0.19113777475345    1.68601744904104    0.72201722495341
H        -0.33083673206016    0.13664824117734   -0.15056417913142
H         1.91092379609534   -0.01034375778367   -1.10853299264565
H         3.71222050459193    3.09459174305923   -0.74006767436962
H         4.75601573925584    1.17783022209071    0.99748161647465
H         5.81402813313869    0.10425017052354   -4.28736883607187
H         4.11258909974940    0.21384105236832   -4.45516584617272
H         4.88717950985678   -1.22010184188156   -3.49256076497544
H         6.68272045577911    0.43203373963843   -1.70667982430145
H         1.28801751061044   -0.60177517235629    3.40498179641587
H         0.26724823055343    0.52844992329780    2.38961201969092
H         1.89916576070240    0.99855556162382    2.91088214388152
