30
 energy: -57.466737316377 gnorm: 0.131898255865 xtb: 6.4.1 (79825abcba525fcdf90b791dcacef51065a7a4e7)
C         0.65259115687655    1.05128004110266   -0.42393689193093
C         1.91258898747743    0.25673938538169   -0.10529564756693
N         3.04122281006251    1.10358892366905    0.30565091466580
C         3.94568205430455    1.87905382385571   -0.50762609338523
C         4.45006873187033    0.63365268207747    0.21027887194396
S         4.94353617986226   -0.60509820689883   -1.10728164552353
O         3.89054574736171   -1.54788067360020   -1.41930923701442
O         6.28321806167756   -1.11431501261174   -0.89170806375176
C         4.90632938157621    0.63831592599093   -2.41942599127649
C         4.79391083826886   -0.05130471164461   -3.76239519862906
O         6.19608500023600    1.27086846417543   -2.25944464695274
C         3.82852831272036    1.61416840295995   -1.95671569522963
O         2.94754607509806    1.92896568854428   -2.74078056124773
S         1.37162186832139   -0.72971164767600    1.37958722641532
C         1.30850557907823    0.53608894723052    2.62598856083945
O         0.00067270068593   -1.17307381166316    1.21267995825769
O         2.25160091236474   -1.79450263401961    1.83813576575202
H         0.72495787884859    1.39861374243978   -1.45612683861337
H         0.52516340994023    1.91492427848735    0.23293716058741
H        -0.20029007089807    0.40681412859410   -0.18247328536317
H         1.98984661378697   -0.38100282801863   -0.97904204363436
H         4.17165571528759    2.91182236513685   -0.25628140905067
H         5.08598858452664    0.77759076095886    1.07400570613460
H         3.73978565717462   -0.31905382270462   -3.88871680133880
H         5.40540297188347   -0.95986667106006   -3.70732742590371
H         4.98741002796925    0.57877528057704   -4.63561447252064
H         6.94277810430465    0.64479880860023   -2.38750806341815
H         0.36428691217954    1.03497691541817    2.40440442950184
H         2.03864174573684    1.34285087788595    2.69770361238463
H         1.10749370392247    0.02625307530280    3.57167016177324
