30
 energy: -57.465925648055 gnorm: 0.148810542552 xtb: 6.4.1 (79825abcba525fcdf90b791dcacef51065a7a4e7)
C         0.59245958612235    1.93597221921250    0.27272252669726
C         1.77351537957078    1.02764401611619   -0.04424538585828
N         3.09252269781276    1.57986851991557    0.29503852360874
C         4.12048450464981    1.87298202890440   -0.67356378789032
C         4.22993548803019    0.62548105295323    0.19394924014070
S         4.26102604446694   -0.75784414235932   -1.07073435795120
O         2.97989654093717   -1.16628691046231   -1.60633731584627
O         5.17141818433299   -1.82595801526789   -0.70901601797424
C         5.22170219915056    0.27023505781792   -2.20622558413880
C         5.32119738721919   -0.22628081099979   -3.63288375898413
O         6.38765583576840    0.52563792786299   -1.39105210912836
C         4.21034138502090    1.40480981914204   -2.07230990547252
O         3.48038680541896    1.61629838197992   -3.02751856554511
S         1.63853178958197   -0.49819522606258    1.01603863678505
C         1.22600182785991    0.07988540045224    2.64557627688302
O         0.51113533222835   -1.28736314444502    0.55764918197913
O         2.87937176526121   -1.25886232805440    1.02659534802511
H         0.49048363401486    2.68976069516430   -0.51002748061666
H         0.60293283306455    2.47039132661343    1.22555475691202
H        -0.35079664538450    1.37868152894173    0.29996494929370
H         1.76320957051496    0.59466100359250   -1.03849691268463
H         4.73261741234596    2.73985201559191   -0.43972843561183
H         4.79069342616983    0.52906916560844    1.11448803530741
H         4.46726522657695    0.31740135169571   -4.05006022277385
H         5.08176377166128   -1.29636827130789   -3.62795488134875
H         6.23397576642824   -0.06413322155389   -4.21382990305307
H         6.69789550066354   -0.40513278845791   -1.33333497412417
H         0.33569540518125   -0.42943841830851    3.01636104475584
H         0.97303989380690    1.13903316238585    2.58793114584284
H         2.16072853899177   -0.01862077051516    3.20346030621250
