30
 energy: -57.477789500058 gnorm: 0.120740578981 xtb: 6.4.1 (79825abcba525fcdf90b791dcacef51065a7a4e7)
C         0.29803848288020    0.78162273584482   -0.32721183717106
C         1.69106501191639    0.18906608731729   -0.15757908052303
N         2.74908275054557    1.16274249035465    0.14639217297665
C         3.54989604742892    1.93914842142900   -0.76832272705803
C         4.21724273489582    0.91925125748465    0.14561119983017
S         4.83300008485157   -0.44285096457180   -0.98553875965648
O         3.88303823544308   -1.51641276320411   -1.18560469994563
O         6.22738215257591   -0.79399144645714   -0.80409933981941
C         4.75432587051760    0.63124045077827   -2.43788990159048
C         4.88449518486652   -0.17537581196299   -3.71233370269716
O         5.87597680551727    1.51977719765122   -2.23395871069626
C         3.55391921985101    1.54020210550449   -2.19119862343705
O         2.85164329881293    1.82130742758333   -3.14920332763911
S         1.73533551710430   -0.77798010576110    1.43410869176420
C         1.44101995269455    0.32108974687968    2.79982275683858
O         0.72197995891676   -1.81577263554744    1.43928990122189
O         3.13045891444259   -1.18728500102954    1.50126475808329
H         0.12899368587992    0.97043991049354   -1.38884532701868
H         0.19175314794656    1.70230705387546    0.25127458715503
H        -0.42558623354576    0.07922214735853    0.10179639576501
H         1.94947455086470   -0.50721056618103   -0.94785746519808
H         3.40889490818890    3.00683751586279   -0.62338161243490
H         4.79230968708947    1.06007995665511    1.05148188085291
H         5.06331752730510    0.49486666000364   -4.55946074715459
H         3.95833177582730   -0.65847466822292   -4.04591541323644
H         5.70593297145537   -0.86842557494311   -3.50769592100398
H         6.63704900152520    0.89898683636800   -2.19786877318055
H         1.23534124981007   -0.32191242228672    3.65643358122818
H         0.59352196868993    0.94792001663548    2.52064957948249
H         2.38255614297171    0.85822573645350    2.93998912777360
