30
 energy: -57.472563688628 gnorm: 0.122803616208 xtb: 6.4.1 (79825abcba525fcdf90b791dcacef51065a7a4e7)
C         0.38710185091191    1.34060607633575   -0.04969864949657
C         1.64780457622132    0.48578558588495   -0.06792338693121
N         2.86815938143964    1.28154813428176    0.12531716921315
C         3.81845948041550    1.88778675397214   -0.77480277836723
C         4.26278486867884    0.76277566812375    0.15134088703196
S         4.68996038501435   -0.62022351910174   -1.03979895182058
O         3.62504462014308   -1.52887906985172   -1.40761457876418
O         5.97888919216594   -1.20863156882713   -0.73490593476530
C         5.05525351888033    0.48688339359553   -2.42184853424240
C         5.04869160704084   -0.11912856691502   -3.80910744796360
O         6.20301700259685    1.23484096809676   -1.96099633019539
C         3.88133879558841    1.43072714438854   -2.17868769151262
O         3.10648157952324    1.81552336795226   -3.03979910198974
S         1.55447358438566   -0.73083207758759    1.33981911343948
C         1.24620758451775    0.29234543968628    2.76032287713314
O         0.44834935670174   -1.60412222091628    0.99662356231572
O         2.89119505359829   -1.27230857764667    1.53574931357313
H         0.28544405646902    1.84240067602827   -1.01362894102799
H         0.52937766601220    2.16646339132485    0.65124358455095
H        -0.49281212020336    0.74668851157462    0.22244232561012
H         1.77142318635809   -0.28776598835432   -0.81789204976173
H         4.23695900363826    2.88181097531226   -0.64205020153444
H         4.67197683318911    0.79361512006078    1.15271357154239
H         4.63165249808550   -1.12749948510574   -3.71914576866955
H         6.04858263754942   -0.07395957389328   -4.25701102228990
H         4.37259586825143    0.51849874750431   -4.38641204063057
H         6.93941093273509    0.61621538082188   -1.75865897294607
H         0.61044029970814    1.11302904845872    2.42593388726488
H         2.26701990885057    0.53525094653955    3.05704799589183
H         0.80376664755799   -0.33502788931646    3.53833367629682
