30
 energy: -57.472127715465 gnorm: 0.138416587859 xtb: 6.4.1 (79825abcba525fcdf90b791dcacef51065a7a4e7)
C         0.56388049032458    1.46501397910135   -0.21051065680069
C         1.79089178867200    0.56300583919947   -0.24581218557556
N         2.85326233564561    1.46699099036342    0.21681642233613
C         3.88216562430071    1.92726863974178   -0.68335818362020
C         4.18286923564791    0.80372699626730    0.30053661286884
S         4.55496842677663   -0.59778989910137   -0.88743317693816
O         3.42549610943261   -1.37187218330458   -1.35655762616806
O         5.80597014863060   -1.17491660561166   -0.43749904828908
C         4.92958734177448    0.46383938867891   -2.30227937458736
C         4.87851555280936   -0.29060486136789   -3.61376189101535
O         6.18089724548805    1.03305543253069   -1.85573383305652
C         3.84540105165024    1.51877676100263   -2.10305276052031
O         2.90364630503199    1.78566574370236   -2.83233529754643
S         1.76565473035571   -0.76523699795426    1.06022849364953
C         1.31000561075227    0.14769613513667    2.51579988424154
O         0.70139077648383   -1.70360989118184    0.75901724608688
O         3.12993079013496   -1.21992370394166    1.28477372180346
H         0.85356404581759    2.27348562616882   -0.88412090360471
H         0.36181532905158    1.78001015190804    0.81591508580378
H        -0.29556602832859    0.97659874860879   -0.68363814527855
H         1.92079278741654    0.11629489698178   -1.22545073855875
H         3.99586077026806    2.99033018839063   -0.48887762775543
H         4.86517110449020    0.94459669726849    1.12864055752566
H         5.19351222596498    0.39043559760956   -4.41112480732464
H         3.84653010127869   -0.65122633428554   -3.52774965846949
H         5.46293450931144   -1.21390013547564   -3.55958668154164
H         6.68326583784951    0.36230194240097   -1.34228510458933
H         1.91970298818926    1.04664142134040    2.61430929169579
H         1.34712365580045   -0.41857448983330    3.44696394773943
H         0.27799419996186    0.49850522545024    2.43494500963994
