30
 energy: -57.471170050004 gnorm: 0.125065153315 xtb: 6.4.1 (79825abcba525fcdf90b791dcacef51065a7a4e7)
C         0.69535512591992    1.27035112882519   -0.62416060440525
C         1.89899521786198    0.45052512977881   -0.17744208915296
N         3.03129251335918    1.16653202865357    0.42677865167489
C         3.96475115826738    1.81491209440118   -0.46151732684247
C         4.37823171849656    0.55064624199774    0.28110152366744
S         4.74700597209403   -0.69108916672872   -1.07391823274378
O         3.68020148737834   -1.58837847774721   -1.46351919717994
O         6.11467705745404   -1.09094850881230   -0.80913612262876
C         4.89739441069504    0.55390581896077   -2.37643757656153
C         4.83548885082561   -0.12692279192363   -3.72714885361623
O         6.17777695055500    1.19793898037191   -2.18927951254942
C         3.82185403293626    1.52759306685397   -1.90400764730139
O         2.85029632662535    1.83268885961105   -2.57704321985922
S         1.52223049403523   -0.62111414700738    1.29912345005174
C         1.03958702546552    0.48343644236112    2.60555920323605
O         0.39528089596081   -1.45995405714469    0.93820534967332
O         2.72332534172585   -1.28474820266094    1.78427366921610
H         0.93795063656995    1.97892096082387   -1.41811900827626
H         0.32482095424454    1.72795571428070    0.29611391851070
H        -0.12724510701123    0.67940624751529   -1.04268227171481
H         2.19652042511927   -0.35635925905605   -0.83814847921956
H         4.31668580790356    2.77855510930388   -0.10321107896839
H         5.09320949170866    0.32214130994285    1.06067108833195
H         3.78976158771532   -0.04453833302700   -4.04098626823058
H         5.14313389384712   -1.17943952711254   -3.72542485564121
H         5.39003385777350    0.44698023458102   -4.47552695592842
H         6.63593718524250    0.62814556930145   -1.53251569522882
H         1.78812598110604    1.27402588409756    2.67033102890321
H         1.10461426155709   -0.12016531179527    3.51139752431933
H         0.00531638894609    0.79483476535088    2.43832459148075
