30
 energy: -57.472800090731 gnorm: 0.146136884554 xtb: 6.4.1 (79825abcba525fcdf90b791dcacef51065a7a4e7)
C         0.37377749578965    1.43034675476411    0.14545588861003
C         1.59190692089444    0.56619953559036   -0.15426375443579
N         2.79487490347931    1.39436332357599    0.00962205869024
C         3.82015613643483    1.93152440234298   -0.85123090907807
C         4.16303254603349    0.82238977690678    0.13521383887307
S         4.37360527487072   -0.63477474603308   -1.02509234513117
O         3.09689024904429   -1.09755167073252   -1.52591676199544
O         5.41208270075365   -1.56099158657399   -0.61986616580125
C         5.10950113727717    0.39368020974653   -2.31734755269897
C         5.37561100833656   -0.15375151068102   -3.70345176859266
O         6.25280140118721    0.82768691345300   -1.54683539192146
C         4.05724445110694    1.49609635784524   -2.24333065853779
O         3.50271403048167    1.88232040950620   -3.25985005586303
S         1.71522224095606   -0.65044867135477    1.25114317715987
C         1.37258095416200    0.15833169173390    2.79653062822486
O         0.68946428389823   -1.64279932784955    0.99231803239149
O         3.06636506124380   -1.18516334765010    1.16805874370672
H         0.08586587934018    2.05751771374392   -0.70015467428502
H         0.48905588893512    1.99064838542623    1.07624893878058
H        -0.57649449709375    0.92794719371694    0.35905645510922
H         1.52922955863703    0.13118039569709   -1.14570033490259
H         4.09468294043942    2.95882247873617   -0.62730474553913
H         4.78917998500445    0.96686131101839    1.00596280317648
H         6.44081726628243   -0.35484495229604   -3.85747672241595
H         4.97887312194289    0.48831818623093   -4.49892991186069
H         4.83839189137054   -1.10495121581433   -3.76319600720359
H         6.96400028246297    0.14984718348741   -1.57220260319563
H         0.29801818480948    0.32994918536442    2.87001473040419
H         2.00672499558902    1.04542843614414    2.80176356363246
H         1.62219358047441   -0.49942994071708    3.63300851310518
