30
 energy: -57.472932675121 gnorm: 0.131502830794 xtb: 6.4.1 (79825abcba525fcdf90b791dcacef51065a7a4e7)
C         0.93864896577297    1.71666559370827   -0.54229499856928
C         1.81635028351288    0.51490369864242   -0.21697919004926
N         3.12678314243662    0.91532335508513    0.31431670320444
C         4.25197963564285    1.53145676471449   -0.34532283724347
C         4.42042455451002    0.17996752742853    0.33726095316872
S         4.60280157791190   -0.89858680949456   -1.18505268566778
O         3.30766747153437   -1.28998384637523   -1.69927525382219
O         5.60221439113822   -1.93125439809407   -0.99718851827334
C         5.23445708922472    0.41126171614070   -2.25952650720090
C         5.10729506515945    0.06666584178471   -3.72815319509846
O         6.50099762968662    0.87073784924691   -1.73613082218679
C         4.24491859822831    1.48726125873029   -1.82239657913315
O         3.55814049219781    2.17677215993162   -2.55921087213038
S         1.19541419716751   -0.44797181608385    1.25200594115374
C         1.05184190687554    0.58855907620478    2.68892688728798
O        -0.11600954137260   -0.94262566911946    0.87862274667906
O         2.18794243853398   -1.43247887485849    1.65702849474568
H         1.13963336488282    2.15162142764409   -1.52296437239332
H         1.11692283442233    2.57328816197061    0.11193655326556
H        -0.08061047072105    1.35245624749109   -0.37051278664144
H         1.78454116893294   -0.25627431477216   -0.97881204047096
H         4.66707335848321    2.47812270668941   -0.01010665541348
H         4.83164295620355   -0.11757997852319    1.29303349351533
H         5.45119936313172   -0.93638029172015   -4.00101748202049
H         5.67661247725136    0.76636169958206   -4.35164602906626
H         4.04288378588644    0.07054596608522   -3.98107256229903
H         7.08974652951146    0.09126917922187   -1.62788402432818
H         1.58769191702641    0.17947387526075    3.54627844179439
H         0.05008203511509    0.96719225864647    2.89440378532430
H         1.67825654233933    1.47031039390439    2.53153756484822
