30
 energy: -57.478978786068 gnorm: 0.118656364424 xtb: 6.4.1 (79825abcba525fcdf90b791dcacef51065a7a4e7)
C         0.33679125003603    1.31774569414558   -0.03138663745083
C         1.68246101273150    0.61104925275770   -0.13225615465145
N         2.84037689812358    1.49027272133700    0.08231882722901
C         3.78576751454073    1.99141650804316   -0.88510213548830
C         4.23946090423303    0.99062753538618    0.17007614368646
S         4.56800949142432   -0.54624753459491   -0.85171174364195
O         3.39855822749776   -1.31541480402211   -1.22016024583679
O         5.81500157298593   -1.21968124201485   -0.54836531401114
C         4.95968687300916    0.42043428998600   -2.32863452949894
C         4.99303219767791   -0.39878031371128   -3.60125244824783
O         6.22767381302580    1.01375411824381   -1.96895828420293
C         3.89885852072901    1.51601375787378   -2.27971770407264
O         3.20847619917498    1.90680058712706   -3.20742598513885
S         1.79952757444200   -0.67884528733345    1.20680161136358
C         1.12536322167180   -0.04180441669283    2.72318957375646
O         0.79893764359355   -1.67501407065943    0.87454085352438
O         3.18599980374695   -1.09582306350611    1.35591237079998
H         0.11011195793207    1.80322768425486   -0.98229013606710
H         0.27698323947571    2.19651812339726    0.61497606155437
H        -0.40521439288861    0.56395423271253    0.25544682172659
H         1.80259451636349   -0.02346831453014   -1.00350355079463
H         4.05857536249674    3.03933741955009   -0.79407049834869
H         4.86753888964223    1.11057368411132    1.04315529949604
H         5.30442705171756   -1.41671884885829   -3.34500839515223
H         5.57940385346605    0.13156974172954   -4.36107941748662
H         3.92868028377260   -0.44922490268374   -3.84937536116206
H         6.89311400195224    0.30620658989914   -2.11889124913376
H         1.47461427098224   -0.71741580322091    3.50492519530541
H         0.04571155564768   -0.14149588022379    2.60691156504760
H         1.30267631402666    1.01692979989737    2.92884464108056
