30
 energy: -57.476857112559 gnorm: 0.135212959456 xtb: 6.4.1 (79825abcba525fcdf90b791dcacef51065a7a4e7)
C         0.38276877084529    1.45485952509748   -0.00836929143021
C         1.68161385770464    0.69116109170420   -0.23239543696803
N         2.85103431660003    1.47976318956665    0.18040996884408
C         3.81545308861882    1.98178102420074   -0.76758052313793
C         4.20325266999467    0.85826246305551    0.18538043025538
S         4.44441257704765   -0.63418987763370   -0.92295513407860
O         3.11500444816544   -1.07806677570645   -1.28439138049537
O         5.58197476612649   -1.42400498612707   -0.49556115567942
C         5.01158696337599    0.43257331773105   -2.26813740440091
C         5.08898303708215   -0.39561549565473   -3.53300656243404
O         6.27493012418346    0.99021795359005   -1.84130860935246
C         3.95712370297258    1.53078073240604   -2.16767993288261
O         3.23387035282050    1.82785939618573   -3.10503447857406
S         1.78833540326661   -0.65633244561053    1.04958734825036
C         1.29267882943533   -0.01242595091895    2.63055543357990
O         0.89170817799513   -1.73345554857100    0.67569550971079
O         3.18309491772689   -0.97515303915667    1.31681207475358
H        -0.03965918656964    1.83160853269465   -0.94159409939070
H         0.60115345479153    2.29090196074854    0.66016934067706
H        -0.38462849070474    0.79223602756790    0.40765826138026
H         1.76928883603418    0.18446622415358   -1.18722002887392
H         4.08705700072096    3.00166811411375   -0.50890917458014
H         4.78212144857547    0.98799618553044    1.09048622136416
H         5.62072440978943   -1.32267889607717   -3.29503346564165
H         5.67234941664805    0.01174027379593   -4.36738349566069
H         4.13231550081457   -0.64412309851997   -4.00203303163556
H         6.75385711981615    0.29654914413932   -1.33597054495563
H         1.13923124944297   -0.87640353514468    3.27827002889758
H         0.30665744398242    0.43599492482364    2.50490819499443
H         2.02090675834085    0.61584676661499    3.14979483535077
