30
 energy: -57.474931828105 gnorm: 0.126902065332 xtb: 6.4.1 (79825abcba525fcdf90b791dcacef51065a7a4e7)
C         0.77069466063139    1.92523921414512   -0.03957494986787
C         1.80612207126266    0.80987032126988   -0.10487338975388
N         3.13588642796669    1.30875432099912    0.27286633784899
C         4.28595413841809    1.74049069473530   -0.48328141824345
C         4.33811575326081    0.43186152944456    0.29491261949025
S         4.49393105088356   -0.86476624714843   -1.04987651031851
O         3.19190152514070   -1.33755084105575   -1.46961770930060
O         5.47259914848881   -1.88580462535770   -0.73331587203717
C         5.16440861756612    0.25624699874684   -2.30006648549089
C         5.07988644800022   -0.12504669246681   -3.76268467693451
O         6.50156348272071    0.46532973000535   -1.79263414446716
C         4.36129625203930    1.50254758768282   -1.93980357788354
O         3.70820207468049    2.12444960763890   -2.76241561984801
S         1.31732808857599   -0.51665871010557    1.10839052822893
C         1.07537964148604    0.36227124454197    2.63439648651334
O         0.03186853299391   -0.96611691372090    0.60888004607961
O         2.46044084977917   -1.39047776299533    1.32780613334887
H         0.57938627753640    2.22777474045296   -1.07067489249732
H         1.14387935198468    2.76359930789651    0.55328950936913
H        -0.11432000488670    1.51821068515464    0.46254475511432
H         1.64957050211389    0.23768219670777   -1.01273292685765
H         4.77043289976328    2.62129170291215   -0.07058402189665
H         4.95444815989375    0.52774046411440    1.17926433573780
H         4.50485514680802   -1.01443935242031   -4.04043695758113
H         6.02663776941193   -0.35450703414992   -4.26612266655853
H         4.62637145820567    0.70201152575170   -4.31698918739454
H         6.86637958696956   -0.42001886544897   -1.57131736189548
H         1.18827615164439   -0.44466826510605    3.35940726473609
H         0.07119244737772    0.77523790185704    2.73525927373839
H         1.88235825628518    1.09629651503505    2.70254703943659
