30
 energy: -57.476926319307 gnorm: 0.136198665023 xtb: 6.4.1 (79825abcba525fcdf90b791dcacef51065a7a4e7)
C         0.39570619739840    1.33909803470670   -0.24600435558757
C         1.67632227528645    0.51569848626192   -0.29557511496045
N         2.76294312360272    1.41573696576705    0.11555916936400
C         3.78546141655998    1.91442644236277   -0.77133259505266
C         4.13104748834898    0.84821755699739    0.26045535373880
S         4.50591587610606   -0.61835804533311   -0.84526130292063
O         3.39162026289024   -1.36162255036389   -1.39379754546743
O         5.74628091908527   -1.23407665099389   -0.41758569632753
C         5.07606239165896    0.39102094908364   -2.23280331479220
C         5.09800482881912   -0.27725518794295   -3.59100299749365
O         6.23212571865696    1.05031479825391   -1.66885694822425
C         4.00769985478582    1.47828207978118   -2.16565611468435
O         3.27157441034573    1.75226448517649   -3.10002099619003
S         1.66466967994212   -0.69684087329489    1.11871648228038
C         1.52418380181145    0.34837065012256    2.54964194783673
O         0.43586515140982   -1.43946073949207    0.91259799447623
O         2.89610593380169   -1.46247126236054    1.24435320767009
H         0.59176702816583    2.06478504371097   -1.03735272793305
H         0.46201861285399    1.88435947777028    0.69839775444410
H        -0.51787043016548    0.74096880022032   -0.33909860519589
H         1.83699690325654    0.02052282889472   -1.24694326828369
H         3.95791210648305    2.96850219569622   -0.57124713706566
H         4.66720889811153    0.90391601340578    1.19883952866777
H         4.34660770758181   -1.06878346581484   -3.50318510225201
H         6.06032547088111   -0.77696049332635   -3.75432327476460
H         4.89766836071508    0.45190351445997   -4.38166570660619
H         6.73088923523975    0.34564050662652   -1.19919415307496
H         0.52997261874016    0.79602945777587    2.52350120585114
H         2.31068106136823    1.09739759956074    2.45223880201614
H         1.83818371174604   -0.24020779438361    3.41545460183517
