30
 energy: -57.473104452495 gnorm: 0.132041412335 xtb: 6.4.1 (79825abcba525fcdf90b791dcacef51065a7a4e7)
C         0.68034772047269    1.99299180232447   -0.03605929413730
C         1.61318728524928    0.80418129738261   -0.22831314646155
N         2.93176402567776    1.32962967545888    0.15261322257403
C         4.11288608739837    1.76200472121340   -0.55365466855233
C         4.14525736350131    0.47491701780811    0.26070078839661
S         4.21054183436792   -0.80429656838074   -1.10799573791819
O         3.03290075111136   -1.17801832590968   -1.86197343952272
O         5.03387835286985   -1.89621049398115   -0.62803509318965
C         5.19039133026736    0.30533104329936   -2.14617075461573
C         5.39643255600260   -0.14135227921392   -3.57788366881134
O         6.40980848765212    0.42985802781871   -1.38020657348763
C         4.29787981074484    1.53443042067867   -2.00201138980087
O         3.74664918055995    2.09343650035138   -2.93669944034320
S         1.47195221216277   -0.54953045822678    1.04374240806052
C         1.68870002763081    0.31626622954423    2.58100217104363
O         0.18148427629988   -1.21114679728453    1.07350803055627
O         2.67264415519084   -1.37159807949379    1.01286504423996
H         0.92569776187516    2.78825387596932   -0.74221460377112
H         0.63049613534436    2.36444576004084    0.99016655782489
H        -0.33585975640486    1.69415095444756   -0.31724230790727
H         1.50702382265531    0.32901403332595   -1.19736527619154
H         4.56292971284192    2.58774215363580   -0.00916630811112
H         4.72783248934657    0.15109414899195    1.11327406888100
H         5.63832406702072   -1.20684535925971   -3.64887398042527
H         6.28701596146020    0.42003564128950   -3.88471379065285
H         4.64447430118256    0.08617374835667   -4.33929375732078
H         6.56808207728260   -0.42109897376784   -0.91465776171295
H         1.75956512788548   -0.49767486497229    3.30350867977606
H         0.79830075882025    0.89121140521018    2.83738834492077
H         2.60903436338336    0.89313391563202    2.45909866933545
