30
 energy: -57.470073107394 gnorm: 0.124928798007 xtb: 6.4.1 (79825abcba525fcdf90b791dcacef51065a7a4e7)
C         0.65419896372095    1.72754158737446   -0.18690085090859
C         1.85043832378442    0.79254118476744   -0.06358314469261
N         3.06197053981528    1.57155088076360    0.22827148474989
C         4.02216294491012    1.97044265945736   -0.77159236597281
C         4.38804339625358    0.89624321542776    0.24479560776726
S         4.56626093963083   -0.60545860918923   -0.86295426149948
O         3.29476350576342   -1.23876844734810   -1.14080632600141
O         5.74565705113554   -1.38372059519612   -0.54068983649529
C         4.98157633664076    0.34846819357595   -2.34171137975629
C         5.01864178462966   -0.48376990661954   -3.60574727311384
O         6.26559412420640    0.85631165997067   -1.91441799756085
C         3.92896303727269    1.43554672300857   -2.14598316279612
O         2.92823232381059    1.55977538846310   -2.83379856188805
S         1.66871370762067   -0.63736661719890    1.11664906040026
C         0.74661605623371   -0.07904021758441    2.53006996370343
O         0.81576494264250   -1.58546059137958    0.42561658229148
O         2.98334771641968   -1.02826312287176    1.60383185045835
H         0.79797985393337    2.41002374093730   -1.02644769018934
H         0.46142261475776    2.25364383345431    0.75099915887510
H        -0.26672094313943    1.14357882265882   -0.29617751730790
H         2.00684628051773    0.26929128970609   -1.00052643115666
H         4.31123885824586    3.01711182151622   -0.81363854096968
H         4.88170932683008    0.88710990936425    1.20778407435108
H         4.14516427696600   -1.01721007538628   -3.99472704353233
H         5.89129644836984   -1.14778245566739   -3.60679420755061
H         5.27133302964331    0.28249411215830   -4.34462562672335
H         6.85820108393377    0.08801132973463   -1.75806698928806
H         1.35300189538284   -0.24644988653928    3.42102890777963
H        -0.24657521863138   -0.52418866464462    2.59730563171641
H         0.75689186121682    0.99646708465569    2.33556924060928
