30
 energy: -57.473344493838 gnorm: 0.125453213074 xtb: 6.4.1 (79825abcba525fcdf90b791dcacef51065a7a4e7)
C         0.72705555410346    1.34651952516774   -0.45519279407304
C         1.90207640214176    0.43393641194757   -0.12817651574498
N         3.03399264832919    1.22653135103240    0.37222795725956
C         3.89764453895056    1.87499478129490   -0.58402099811707
C         4.40507579199833    0.67318927717909    0.20274078879439
S         4.80668351202659   -0.71175787481260   -0.99501230342507
O         3.80587515722060   -1.73191269741239   -1.22448038148956
O         6.21358422920531   -0.97634082067373   -0.76885418975887
C         4.79688882095472    0.48802181035166   -2.34764625733785
C         4.58355527545350   -0.18973672835434   -3.68440091257572
O         5.98452970691921    1.28325802549299   -2.13248401885574
C         3.69441475510122    1.48173588784585   -1.99391292430422
O         2.81563926261364    1.86831165779772   -2.74776801837712
S         1.59109268675809   -0.72709510108448    1.29516572552474
C         1.05145964052201    0.43948914385754    2.52302095905980
O         0.53103538051644   -1.65979640985898    0.96308675412121
O         2.92574155620928   -1.17696919119091    1.66222897175919
H         0.87365017742380    1.99009542054498   -1.32445329490610
H         0.46033181823482    1.95831764167720    0.40977208424606
H        -0.10951219195394    0.68403360562487   -0.70482090164334
H         2.03344704812076   -0.22215555527311   -0.98164102788242
H         3.98401599961477    2.94245308830303   -0.39984177377062
H         4.94280538112360    0.79174238558552    1.13436754817695
H         3.55764708083061   -0.02350818529549   -4.02893984891036
H         4.92468025553192   -1.23028182080475   -3.62661180014472
H         5.34110809554956    0.24725568329771   -4.34174860588764
H         6.68266340287782    0.60791503853824   -1.98270005322813
H         1.25669887867981    0.04687858980438    3.51965099614775
H        -0.02162982458605    0.59767050839254    2.41093019785701
H         1.71549643929328    1.27421697005754    2.28440690554832
