30
 energy: -57.478022930406 gnorm: 0.136500272181 xtb: 6.4.1 (79825abcba525fcdf90b791dcacef51065a7a4e7)
C         0.55739987809286    1.69706269807810   -0.04792080555257
C         1.72268882240277    0.73095914562685   -0.21870492186644
N         2.91328037695325    1.47556397893735    0.21477050044343
C         3.96490400779113    1.95688218481985   -0.64733873749390
C         4.20774997248516    0.74170054970567    0.23876333788797
S         4.44756781453501   -0.70396487770394   -0.93021847630145
O         3.32980636775499   -1.47791354317141   -1.42680851168462
O         5.62937227364777   -1.37960362494975   -0.43285365193241
C         5.01396693716587    0.41990888677981   -2.22840399123361
C         5.04922556636681   -0.32152798949382   -3.54780121444869
O         6.32565402973791    0.86530094496445   -1.81574288821005
C         3.97685561746177    1.52643797199886   -2.06095993716694
O         3.20272913334830    1.96168786956966   -2.89837886361202
S         1.62384040031155   -0.67666107417334    0.99761843476270
C         1.39526590360867    0.17549721330434    2.54077463271829
O         0.41765195588086   -1.44295020241740    0.74894178894269
O         2.92201777700040   -1.33175291126640    1.06086328339913
H         0.51999376149429    2.51459699530871   -0.77009265824697
H         0.73419233206844    2.08895214456833    0.95645452952177
H        -0.24399149572751    0.94995677079455   -0.02238697960155
H         1.74798530818589    0.34071980851897   -1.23023345771660
H         4.46581736424780    2.84184752117191   -0.26423130820974
H         4.83849531596595    0.63538989008970    1.11168635972022
H         4.75833778075621    0.22701662476527   -4.44963808085396
H         4.42045556873715   -1.21804387432124   -3.48994379037960
H         6.06925378069295   -0.67062569464863   -3.73388685976844
H         6.63862176157688    0.08622392387135   -1.30485714963416
H         0.37462102212135    0.55742505327286    2.58496483463317
H         2.11639319867333    0.99186131601743    2.59207530718942
H         1.54489513343668   -0.50973932319413    3.37905505312188
