30
 energy: -57.472820375240 gnorm: 0.139072201510 xtb: 6.4.1 (79825abcba525fcdf90b791dcacef51065a7a4e7)
C         0.75465844263616    1.60529996204532   -0.50507312908106
C         1.80081074463487    0.52537790441154   -0.26062409130528
N         2.99896188106417    1.18403156507677    0.27831442507210
C         4.12336518388057    1.70862901780477   -0.45743456592150
C         4.28435071414822    0.43960514179195    0.36989822727621
S         4.62636587029922   -0.83461712971179   -0.96177847969511
O         3.42460448556756   -1.49062859989680   -1.43125411507000
O         5.80662413906808   -1.62706870140432   -0.67976395269311
C         5.03041623215882    0.34662239697344   -2.26967844694931
C         4.79104915410205   -0.01920305266244   -3.71904244084440
O         6.35430775389634    0.82140286146291   -1.93639020921246
C         4.14625707489802    1.54155776419739   -1.92553302361500
O         3.75689975055256    2.33284944014336   -2.76947799503846
S         1.36151708145047   -0.54829313479140    1.19706578453187
C         1.22502337544203    0.49303781497634    2.63120330232892
O         0.07395500386120   -1.19367812394740    1.02504317542229
O         2.51390338840642   -1.42041893482562    1.36972763964043
H         0.95665783033295    2.10558231942237   -1.45386580362319
H         0.64333994406371    2.43387952779998    0.19825241100475
H        -0.17167700793293    1.02270875511144   -0.56454996892982
H         1.82840358494938   -0.16384278819565   -1.09748137743637
H         4.65093565895390    2.55310576750078   -0.02225927377335
H         4.74196826194626    0.28570228642457    1.33842098609444
H         3.72500181980046   -0.14300051776469   -3.93593849874897
H         5.21895958800150   -0.98579725476127   -4.01063844964816
H         5.18525056841039    0.70165730079367   -4.44148290834836
H         6.74523289873182   -0.05142933283396   -1.70999335506165
H         0.50933758290753    1.26537169100178    2.34689387003931
H         2.19115827559309    0.96132896592215    2.82197393886642
H         0.91344970741995   -0.16249709330755    3.44842292641675
