30
 energy: -57.470942759504 gnorm: 0.133644687839 xtb: 6.4.1 (79825abcba525fcdf90b791dcacef51065a7a4e7)
C         0.84525478745891    1.32347213133900   -0.52680383136893
C         1.95123980321395    0.33445260280303   -0.18175440928810
N         3.04877185119461    1.16650310024283    0.33104297052196
C         3.96882524274654    1.86072267708578   -0.53635105785569
C         4.46701540173169    0.71556900239623    0.33614345991168
S         4.86107855653525   -0.64271897833709   -0.89420112013767
O         3.88698039620941   -1.67819199075584   -1.16607837982963
O         6.24327847838113   -1.06237017693456   -0.77614392103506
C         4.91584657009040    0.45682357345588   -2.32849275033712
C         4.40349980957927   -0.15107467338232   -3.61680224969564
O         6.22840512270081    1.05733317031637   -2.40441753135200
C         3.92692043820703    1.56647601361340   -1.98390521944133
O         3.18645589835564    2.14135816220813   -2.76570281164612
S         1.40637927799147   -0.70783764177209    1.26301762132882
C         0.80679569885232    0.44555196211350    2.47542970230990
O         0.36297361150026   -1.61936313140969    0.83365115192128
O         2.65278419602398   -1.24705174282690    1.78659441856131
H         0.81964206786632    1.57610816548994   -1.58831820076095
H         0.89068971059007    2.19551921041605    0.12975712225976
H        -0.12250120967561    0.81392879658874   -0.45708081651610
H         2.10174404659172   -0.31396653635539   -1.03791892664664
H         4.00273848572645    2.92073953548969   -0.29957395564116
H         5.03053093122144    0.74918115736867    1.25942937494426
H         3.46977676791880   -0.68955940950046   -3.42439096803163
H         5.10475522237971   -0.91019405045443   -3.98343359071260
H         4.35888105845265    0.57155481198695   -4.43702808856907
H         6.89290494300042    0.43069098382228   -2.04154895654675
H         1.06369132398068    1.49527044194990    2.32834682269354
H         1.40398733099839    0.13765323856415    3.33430525409140
H        -0.20267054444045    0.23790856062198    2.83945470377867
