30
 energy: -57.471398398982 gnorm: 0.139208297860 xtb: 6.4.1 (79825abcba525fcdf90b791dcacef51065a7a4e7)
C         0.82943997864624    2.28707840843211    0.31295995373845
C         1.86493509749797    1.23673050182320   -0.06775083227798
N         3.24271493562342    1.60933302578388    0.28258596217409
C         4.34675105078194    1.78345709800441   -0.62933317641691
C         4.32727271139338    0.59088637890585    0.31840768689466
S         4.19690745059863   -0.78612372546496   -0.94683057576747
O         2.87283221563011   -0.86365479171114   -1.52631529442632
O         4.92690577151231   -1.99969126646121   -0.63880861541351
C         5.29801001550124    0.04044372125216   -2.11881403765730
C         5.15931631405086   -0.48953192798210   -3.53007968123949
O         6.51769993200834    0.20850842291854   -1.36165020663889
C         4.40482054480510    1.27311080309030   -2.01494667136947
O         3.60207898940701    1.58975913343736   -2.87826846874758
S         1.55054283290423   -0.36744623422217    0.82577178838936
C         1.00278337389214   -0.03226495939000    2.48328926616467
O         0.44006310179072   -1.03354640051182    0.17226203104018
O         2.77863241693691   -1.13911596967681    0.94714527155660
H         0.81313894703606    3.06861932323063   -0.44876296846378
H         0.89449736615334    2.75064868338428    1.30011387627143
H        -0.10192080858519    1.71882331101407    0.20951621378727
H         1.64121220676443    0.96876126182458   -1.09452107960545
H         5.04300769248770    2.56857899728070   -0.34709298817269
H         5.08192364681351    0.42225727793179    1.07550913821195
H         5.87174717369618   -1.31313774439823   -3.64384417562214
H         5.38092857065224    0.30084898615842   -4.25714635015509
H         4.13143689501110   -0.83212772432372   -3.68189092272863
H         6.59527419916335   -0.68863256881208   -0.96790623182811
H        -0.08677773869786    0.00845438682494    2.45615737578954
H         1.50634681514218    0.86780633556625    2.83741100707547
H         1.37413950751394   -0.85221941868074    3.10330651351227
