30
 energy: -57.470269723361 gnorm: 0.142860130045 xtb: 6.4.1 (79825abcba525fcdf90b791dcacef51065a7a4e7)
C         1.04850622276885    1.94044945066124   -0.20637348556494
C         2.09961017941180    0.83920823174329   -0.15280224878857
N         3.35546836731090    1.26921200439167    0.47788190250546
C         4.44747417366807    1.70236680689788   -0.35920356343344
C         4.54958453780672    0.38459756578760    0.39834193892057
S         4.55122865802665   -0.89819490837357   -0.96855980674568
O         3.29075008915427   -1.59861842939230   -1.09341779268193
O         5.71726715902536   -1.74822408054379   -0.83318666425630
C         4.94060081295178    0.29420968618102   -2.27076810203694
C         4.46858474134638   -0.13501801334118   -3.64362834833087
O         6.32828049425896    0.56031490514317   -1.96626947279912
C         4.22115795977254    1.55929196648836   -1.81249654420808
O         3.59986852702937    2.25935610287774   -2.59601068398197
S         1.38792953180231   -0.43089231225232    1.00950729406962
C         0.52561943958802    0.32459479318713    2.36796658152481
O         0.53468674291580   -1.30582983861596    0.22823222503053
O         2.48894480490623   -1.15650128929460    1.62567829919771
H         1.31726546514481    2.68940738447158   -0.95345059712697
H         1.14431401640434    2.35377791408649    0.80039519267598
H         0.06997578723719    1.47184987579458   -0.36109904688109
H         2.17611758821266    0.27253053245470   -1.07428997728037
H         5.09749285612805    2.48404196984645    0.02460469085190
H         5.10650649421643    0.22857756475226    1.31301780832258
H         4.89976781133497   -1.11525441435775   -3.87176074270688
H         4.69921085490106    0.61916008693008   -4.40551213994201
H         3.38687747260432   -0.29144560221190   -3.69256123404700
H         6.87926644810063   -0.13601799241806   -2.38751645294042
H         0.47767333977598   -0.32870875894159    3.23999482852933
H        -0.50609939148435    0.39397851367599    2.02177467502938
H         0.97784715428852    1.29188115731393    2.60141735722292
