30
 energy: -57.477629037287 gnorm: 0.134743575555 xtb: 6.4.1 (79825abcba525fcdf90b791dcacef51065a7a4e7)
C         0.59096606952054    1.20862477809093   -0.40633849409044
C         1.87349303460492    0.41095952274608   -0.20815587745027
N         2.98563362367658    1.26002070618028    0.24138160966060
C         3.92490672114591    1.91678344452973   -0.63454109056132
C         4.38974532447694    0.76688984408912    0.25004200002963
S         4.61762449898832   -0.61359343664961   -0.99748220398222
O         3.44686850556683   -1.44153242442779   -1.19455143515119
O         5.82534177052045   -1.35531520752159   -0.69451509054313
C         4.87575764636262    0.52741974621809   -2.37611994883551
C         4.78237869025505   -0.12499635369256   -3.73898987979996
O         6.17485568506591    1.01871572600574   -1.97592143991332
C         3.85147413936977    1.61886446837321   -2.08008662165659
O         3.01376294126462    2.13320422539408   -2.80374352395609
S         1.65480531591302   -0.71945773303287    1.25640573346662
C         1.12524346462691    0.30842170558016    2.60650913827925
O         0.66692796354856   -1.74641359281585    0.98550046553681
O         3.03183317779742   -1.10761711339963    1.52386842384866
H         0.59141426544543    1.73486512181196   -1.36256264558197
H         0.51729162003028    2.04020115768612    0.29839941555429
H        -0.29995813528664    0.58585560205037   -0.26683943067877
H         2.11360352267450   -0.12473793060646   -1.12001760958962
H         4.06778309188458    2.92177573169216   -0.24669320140003
H         5.04765701055489    0.77688064581572    1.10922104876868
H         3.84546984000331   -0.68574317729948   -3.82017754667315
H         5.68366744058838   -0.73345012003560   -3.88006619192197
H         4.70639335836096    0.62914229912173   -4.52794853194097
H         6.63677709598833    0.19771049354682   -1.69575530660526
H         0.04023801261763    0.29064179345232    2.71598364177303
H         1.63434420250244    1.25853481310577    2.44156004095339
H         1.62976589042014   -0.02509871007376    3.51693394839019
