30
 energy: -57.470101346544 gnorm: 0.128383832997 xtb: 6.4.1 (79825abcba525fcdf90b791dcacef51065a7a4e7)
C         0.76079494225475    1.78415854445313   -0.42981049859068
C         1.83048514451934    0.71105373778234   -0.27286920031201
N         3.03821935878765    1.25803180638907    0.36119593212154
C         4.20304299861346    1.71880185150665   -0.35412826788243
C         4.22521133937374    0.36071098392335    0.33573784348038
S         4.29296483687431   -0.92640463653268   -1.02540963200574
O         3.07662488768430   -1.52637007443777   -1.53092664787087
O         5.32296049231979   -1.82884463741599   -0.55082322350903
C         4.99011477571631    0.26428739652931   -2.19392162535390
C         4.82656968962485   -0.14370617055956   -3.64256757851522
O         6.40888471768072    0.28000985353923   -1.91818451193811
C         4.47940227459388    1.64821262405936   -1.80409123620891
O         4.47855744887305    2.53248573497812   -2.64554540437684
S         1.41492588989904   -0.48793796601068    1.09107273057412
C         1.33507170120330    0.58174431519067    2.50851910527011
O         0.08383784576995   -1.00854458580518    0.84388245432447
O         2.54117090118438   -1.38930766323532    1.28475951753342
H         1.15630045398844    2.58798788545348   -1.05329065823426
H         0.42974895803426    2.28042116328081    0.48546797795462
H        -0.17662044029622    1.45988575490838   -0.89580076829961
H         1.84900209968926    0.12620889360645   -1.18595751509854
H         4.57373433833094    2.62408931303386    0.11904365245385
H         4.70581058314537    0.19030402743991    1.29026500314114
H         4.80009294718467   -1.22238868184974   -3.82849674088139
H         5.68264986896793    0.34302364736873   -4.12491676122451
H         4.02400122908337    0.33025056538507   -4.21545806728385
H         6.70573967406639   -0.47619903644838   -1.36506671836392
H         1.83423921055292   -0.06946080795721    3.22706020228526
H         0.29192532848960    0.78121454096829    2.75583258475768
H         1.95581672910887    1.45856641291964    2.30724640523782
