30
 energy: -57.469795661465 gnorm: 0.137088608173 xtb: 6.4.1 (79825abcba525fcdf90b791dcacef51065a7a4e7)
C         0.56920549504958    1.16391035739082   -0.66393103601441
C         1.77250446941559    0.35760780015722   -0.19237043870055
N         2.90528977712792    1.15808263284107    0.29330746097879
C         3.86684572764709    1.77934328499846   -0.58433551545724
C         4.27665720113557    0.58087903249356    0.26216048461341
S         4.69926835933499   -0.72520233529693   -1.01437031580437
O         3.50395700220749   -1.49695743794090   -1.28010263779826
O         5.95774878215709   -1.28372840132626   -0.56182537474342
C         4.96507390688284    0.47392163558548   -2.34125951664745
C         5.01437963111932   -0.00971300477984   -3.77494264910110
O         6.12270472418600    1.26165244821566   -1.98271055433565
C         3.87211767092404    1.49331529499797   -2.03413209536271
O         3.17183294025014    1.96446209078355   -2.91595222987492
S         1.55676751629582   -0.65809655366511    1.35437143352283
C         1.17988405857484    0.58981576569332    2.56285180241454
O         0.30652394114329   -1.37226875435679    1.17893273412179
O         2.79051064699180   -1.35019003671065    1.69685388040952
H         0.94044614971169    1.72301168717306   -1.52467478901786
H         0.19773398236345    1.82847821565355    0.11962572439105
H        -0.13461889740495    0.38241865734327   -0.97206951590716
H         2.10748910532794   -0.29204623991654   -0.99352682096748
H         4.05895220471070    2.81248790291981   -0.30764720931356
H         4.98782111041403    0.52026749791821    1.07561506959894
H         4.15646203100361   -0.66913030742048   -3.94219348954444
H         5.86938333521127   -0.69289291523644   -3.84330783884685
H         5.17292408342206    0.77764650278162   -4.51783113055869
H         6.92193236017845    0.69226707740597   -1.92840098606395
H         0.10431077333583    0.63562051945839    2.73772791712597
H         1.68949557399005    1.51065813970398    2.27745364445234
H         1.47168814488593    0.12206870671349    3.50662886534691
