30
 energy: -57.477136396140 gnorm: 0.126831132653 xtb: 6.4.1 (79825abcba525fcdf90b791dcacef51065a7a4e7)
C         0.99321613315983    1.84659518825126   -0.30256169846722
C         1.94450749722019    0.66323941626683   -0.17953552160689
N         3.19054665415779    1.19163867103405    0.39320038276375
C         4.20375686196501    1.70384148179848   -0.49666748658394
C         4.46413981791874    0.42812481457064    0.29425903438840
S         4.59694760858014   -0.83843268595753   -1.08130411590449
O         3.34196701284761   -1.43563195752516   -1.48548918013507
O         5.77673730916202   -1.66182512170700   -0.90625436876682
C         5.05185062335828    0.38003028206744   -2.33732843133871
C         5.00576285694657   -0.22262965572812   -3.72529736677014
O         6.35021853555094    0.81147119031055   -1.87118917243926
C         4.09388064783787    1.50500862505851   -1.95685339059096
O         3.21307137594207    2.00338056455904   -2.63933791850818
S         1.31690079570563   -0.50973792008521    1.12462787659009
C         1.04631187495965    0.39516278506558    2.63051215190995
O         0.00388518417625   -1.03632098757164    0.80426878948662
O         2.36024535664130   -1.42400373197167    1.56503664323263
H         0.99427366504016    2.39197303376560   -1.24800107881601
H         1.32653442453506    2.48663780341566    0.51771087388341
H        -0.03833144874324    1.55814589639088   -0.07071267028880
H         2.00250162760551    0.04247049815705   -1.06689070605181
H         4.51814467466607    2.69923662622735   -0.19467733486989
H         5.10827587579186    0.26966970370569    1.14931291065430
H         5.17232475018599   -1.28699930210399   -3.52984654821570
H         5.77020378670500    0.16687817958011   -4.40819826279893
H         4.04241847543936    0.00605219032052   -4.19072926152539
H         6.85798361093919    0.00416306931812   -1.63382390590812
H         0.47332411007995    1.31500971481911    2.50761272258030
H         2.00050636802331    0.51636066086555    3.14425394221976
H         0.42478994955212   -0.16591350103937    3.33304754436841
