30
 energy: -57.472571800737 gnorm: 0.130682810124 xtb: 6.4.1 (79825abcba525fcdf90b791dcacef51065a7a4e7)
C         0.48205117783422    1.40224586948932   -0.22281316343863
C         1.69400263757222    0.47948965865617   -0.21203080001665
N         2.88850709216704    1.25262961345136    0.15574526837601
C         3.93517903287539    1.92370613928411   -0.57565474475146
C         4.25422539450366    0.66497183371502    0.22097241486792
S         4.49767462645746   -0.70086586510574   -1.03966214073717
O         3.34273547070326   -1.51169905489897   -1.36161544870251
O         5.73312743395496   -1.38337127886809   -0.71047528512236
C         5.03605076508234    0.49862840864184   -2.28085127066996
C         5.01918487682528   -0.08118267451137   -3.67917723200540
O         6.30465973715425    1.07159162378793   -1.89158178761618
C         4.03051139792385    1.61564895251136   -2.01779289979384
O         3.25546849902565    1.98260157628258   -2.88649251778566
S         1.64511203673878   -0.72527414219457    1.20809669168630
C         1.34117960864457    0.38793192027407    2.56018708830297
O         0.46106042311582   -1.56023098739100    1.13882542298031
O         2.97151783279579   -1.31865252951525    1.29152019682348
H         0.27400610350407    1.87661376414949   -1.18353480631989
H         0.66611632798579    2.07934907117723    0.61459593477900
H        -0.43281338764971    0.80392306232973   -0.14483868583890
H         1.89657414991096   -0.15117206133094   -1.07072003738393
H         3.97814134146522    2.94469796111818   -0.20608868794248
H         4.89158481725511    0.65381848298592    1.09549217857809
H         4.48163580211122    0.61163795617622   -4.33481981543565
H         4.48303423541250   -1.03584033432620   -3.73927020639321
H         6.03665025109222   -0.28492893512981   -4.02588504370860
H         6.79779897746351    0.37538929241257   -1.40369855638742
H         0.32650027125580    0.78621409066668    2.52365247467997
H         1.99629914857836    1.25439094965839    2.46440701807568
H         1.42606380214543   -0.16835230666256    3.49720075581980
