30
 energy: -57.458977559765 gnorm: 0.128117032475 xtb: 6.4.1 (79825abcba525fcdf90b791dcacef51065a7a4e7)
C         0.67021969456676    0.22030042281209   -0.48727446032092
C         2.03905057372725   -0.20636188777100    0.02719899239679
N         2.98006841790157    0.87664014705695    0.34569157292121
C         3.47078129798457    1.81526667739209   -0.63359028425224
C         4.44479780297071    0.88835213793474    0.08260716231449
S         5.01590948046274   -0.26266680729217   -1.28229813063263
O         4.01548958905660   -1.24734151228278   -1.63523525370057
O         6.36329709824228   -0.72942025093819   -1.02305095580752
C         4.64772949172095    0.95463228084099   -2.56752661705132
C         4.60306995086564    0.11700388281350   -3.82775081824860
O         5.79330959178000    1.83566070229119   -2.59245560653699
C         3.31544624030467    1.50798489704035   -2.07067026197084
O         2.28398723452227    1.43203185965520   -2.71898207710282
S         1.80416306622604   -0.82218639119191    1.76966742321648
C         0.94093323882352    0.51655020985404    2.55857152213853
O         0.91277054480566   -1.96486366026901    1.82998075318666
O         3.12285929870325   -1.04257153769073    2.34488943385954
H         0.68083798439078    0.39378861304941   -1.56480999417850
H         0.42425649092266    1.17331859212292   -0.01307915023630
H        -0.12048630517371   -0.47750524287849   -0.18911569850036
H         2.44786250050912   -1.05708947498202   -0.50689090225492
H         3.36096870060607    2.88676668605638   -0.48979176846802
H         5.18487450769467    0.99306839756172    0.86520361104595
H         5.45395411019442   -0.56743727417497   -3.74798189486468
H         4.66337253815629    0.70591286268603   -4.75078371831597
H         3.61916523553940   -0.36123054520988   -3.81441004818006
H         6.28757884832283    1.75792256864240   -3.43836856221482
H        -0.04808300927928    0.27847688879173    2.16524522287389
H         1.33655495291663    1.51348350337864    2.36181240381856
H         1.07387350565471    0.31018765309589    3.62365060894057
