30
 energy: -57.473960258780 gnorm: 0.130411271959 xtb: 6.4.1 (79825abcba525fcdf90b791dcacef51065a7a4e7)
C         0.69035915423145    1.66677802647661   -0.45476629720943
C         1.69463504202673    0.54462267373100   -0.22537811140445
N         2.98367438111899    1.08786288652815    0.22530266031947
C         4.14439850310546    1.62954112347871   -0.43810977090679
C         4.24126619869380    0.29470170755644    0.28965245409636
S         4.31386901460413   -0.83482120795388   -1.20463214789723
O         3.03244072198114   -1.24822911320652   -1.73569172933877
O         5.20862774868271   -1.95672028067444   -1.00148062027104
C         5.15805246701948    0.33787739529648   -2.29151674322943
C         5.37354232530132    0.04658101306168   -3.76137775066289
O         6.42604116828310    0.46149643095987   -1.60879477434203
C         4.30494723161235    1.54223916407337   -1.90451776273038
O         3.94602436943108    2.41850685330971   -2.67478659150539
S         1.37713616496101   -0.50696632443830    1.27926909930305
C         1.42765978195873    0.63858865982056    2.63754088421052
O         0.08357803363348   -1.16307706716625    1.29174791818998
O         2.56571924016522   -1.31851296976978    1.49623002665081
H         1.06832144883343    2.30494204666549   -1.25550652665294
H         0.52789350171087    2.30441654343919    0.41737173828384
H        -0.28702149741385    1.36281385027584   -0.84640415658094
H         1.71639404554019   -0.12017512195349   -1.08193346629483
H         4.48266493037109    2.51757537936785    0.08897666955058
H         4.83300962475450    0.15737656414827    1.18526273151221
H         4.42654534726170   -0.32717185722118   -4.16428238822305
H         6.16287357933405   -0.71378302455147   -3.79662863853028
H         5.69324331456729    0.98870833625568   -4.21650632342094
H         6.61210180665947   -0.42743369515898   -1.23316368711814
H         1.68977067555870    0.05216932525514    3.51898734678888
H         0.44866655585340    1.11887111625042    2.64031726184910
H         2.22912313872808    1.34733658020428    2.41396773377977
