30
 energy: -57.477193152899 gnorm: 0.143403465265 xtb: 6.4.1 (79825abcba525fcdf90b791dcacef51065a7a4e7)
C         0.47220348337880    1.55086928798543    0.01382105856096
C         1.66061571289214    0.60896083451306   -0.13076948428413
N         2.82221367277193    1.44285260609859    0.20858353963588
C         3.77887835830604    1.92504020364625   -0.75738708407577
C         4.18102798305185    0.83624273591381    0.22933110908027
S         4.62968304534983   -0.55564227994347   -0.94341973612545
O         3.57688504896384   -1.48495974486271   -1.29409659287960
O         5.84724146487584   -1.18698274893036   -0.47493071607566
C         5.01158878427701    0.50287444763154   -2.35864981667019
C         5.06574915256601   -0.24723389524910   -3.67249340649525
O         6.23927860300550    1.15174295923823   -1.95748443088092
C         3.83166941858556    1.44863326538295   -2.15524248013144
O         2.93693071919352    1.55017540150341   -2.97932775804930
S         1.65581428034588   -0.73792776950879    1.15627216353512
C         1.41608780314053    0.08634502786362    2.71282498060256
O         0.48784502115414   -1.49485024452290    0.74780448606469
O         2.91196196769688   -1.47277544900611    1.17866870862766
H         0.35721747595367    2.03267145312624   -0.95877270274599
H         0.66846928972215    2.33191010469400    0.75210129135692
H        -0.43084846138753    1.01692494679459    0.33075639023631
H         1.57760477092873    0.14589665287428   -1.10790680070424
H         4.02259032539617    2.98402172430489   -0.75394012755879
H         4.82944727701955    0.80416165651310    1.09515999345022
H         4.15116419843179   -0.82557608496768   -3.83947036238972
H         5.97809575941459   -0.83217450349782   -3.83955051123982
H         5.08430650976253    0.49607587209168   -4.47505234320432
H         6.85182076616599    0.52379686856650   -1.51432548750647
H         0.42910754351045    0.54793626966198    2.76121005371091
H         2.17765418203611    0.86377605402670    2.78155876366665
H         1.61149751633604   -0.66135492825904    3.48574923300696
