30
 energy: -57.469929824961 gnorm: 0.130178370362 xtb: 6.4.1 (79825abcba525fcdf90b791dcacef51065a7a4e7)
C         1.08387228603698    1.88643957858731   -0.31939807076950
C         1.95877796999076    0.68091827569802   -0.00052503862717
N         3.27390218214754    1.11381414273694    0.49231900885999
C         4.27458566483716    1.65851234220454   -0.39241140429926
C         4.50633274293040    0.30855699108046    0.27447006597019
S         4.75174989483748   -0.91322548001470   -1.12588626385648
O         3.58083266090451   -1.71796485033910   -1.40217633905880
O         6.02756537579249   -1.58549440543495   -0.98141965043827
C         5.07130570009924    0.39727080578590   -2.32990844483606
C         4.87075204733688    0.02342852639423   -3.78311215746267
O         6.45341442456067    0.72816464703058   -2.06633484600273
C         4.14562229639208    1.51438297030733   -1.85745247002461
O         3.19437948215100    1.98563931960352   -2.45997986456056
S         1.08824015526300   -0.44777151703630    1.19898795543435
C         1.08091929329635    0.38074653542041    2.77164664170442
O        -0.25898402032904   -0.61990115737501    0.68978458174707
O         1.92326707258256   -1.62858559138717    1.36274966956708
H         1.00775850415959    2.08120785665784   -1.39064302157495
H         1.35822952457258    2.84069971776617    0.13636329301112
H         0.05905046883037    1.66839937338864    0.00192122762667
H         2.06126400973099    0.10109445043085   -0.91124867502311
H         4.75073843204071    2.60252495778889   -0.14147718200530
H         5.10386037802735    0.07791066111913    1.14676554143260
H         4.41666942916133    0.75629771759511   -4.45804797308494
H         4.22559945853063   -0.85961762385810   -3.86340883561079
H         5.75987974933261   -0.27608041492885   -4.34587405770433
H         6.95585780830470   -0.04784933188854   -1.73276776987130
H         0.66007584112782   -0.47012438003830    3.30871935268741
H         0.42132325253042    1.24233388945855    2.87984542570813
H         2.10867086553581    0.59000242321748    3.07920274931459
