30
 energy: -57.474987571607 gnorm: 0.130617181782 xtb: 6.4.1 (79825abcba525fcdf90b791dcacef51065a7a4e7)
C         0.94251783126583    2.21874507517626   -0.00906200325717
C         1.82469578644634    0.98703397313620   -0.16740164543427
N         3.17580642226483    1.24174278492656    0.35170238143060
C         4.35304279661978    1.59277143941283   -0.40440954919352
C         4.28378281056591    0.24905183895868    0.31004001638454
S         4.32066012314388   -0.96593007527396   -1.11699839660999
O         3.02733387793092   -1.38900845531264   -1.61025366084872
O         5.37950054348146   -1.90845170304766   -0.81528460787082
C         5.20288515086615    0.19484830947589   -2.18632452963897
C         5.24520937489878   -0.33600534950909   -3.60342858284421
O         6.50222034186612    0.26722152411122   -1.55729632708358
C         4.43720753694688    1.47742870330483   -1.87524681939801
O         3.72005639148370    2.09818748347251   -2.64358107260226
S         1.26227994469849   -0.35393743963355    0.99711211228459
C         1.23427440610149    0.51240263703612    2.54902114964711
O        -0.09125628781371   -0.76350231288350    0.67442658794197
O         2.25532677011541   -1.41709216917516    1.04149398774997
H         1.05329267707393    2.68595693315207   -0.98923328591425
H         1.27323522020792    2.76255193387892    0.87891481559836
H        -0.09895985629524    1.91117007631075    0.13848195830130
H         1.94997857242475    0.63662391820030   -1.18604468403421
H         4.86520870761920    2.45349447604392    0.01712461251784
H         4.68988055387139   -0.20296035248280    1.20553196317467
H         5.08999472226892   -1.41722141774231   -3.67897232281204
H         6.20155657465613    0.01787872902594   -4.00667294501004
H         4.55229562767888    0.25554709636858   -4.20914376003678
H         6.87052352399149   -0.63489966279912   -1.42906148768101
H         1.44907416113700   -0.14383694114634    3.39326537038799
H         0.23696975996248    0.95299026561165    2.56832574434169
H         2.07337531097804    1.21162580532919    2.50841680359488
