30
 energy: -57.475664577810 gnorm: 0.118949044708 xtb: 6.4.1 (79825abcba525fcdf90b791dcacef51065a7a4e7)
C         0.94361055668060    2.18453242676950   -0.03987159532143
C         1.90951924754994    1.00887390308623   -0.11245954192452
N         3.28169451914867    1.34908167087425    0.28908682571755
C         4.44468090373650    1.70769815386372   -0.48529573415662
C         4.42060052014536    0.39116332287174    0.28084605184948
S         4.27639368365535   -0.96719992999610   -1.00291150232861
O         2.92849550503683   -1.30249037267985   -1.41002285113534
O         5.27024713434314   -1.98004834040917   -0.70809855935622
C         5.00425410659068    0.15301909815529   -2.22131799246191
C         4.94408677155936   -0.33125385617334   -3.65437083304287
O         6.31358465154948    0.20283420834563   -1.61110632411337
C         4.43177723914837    1.54178350600904   -1.95364718513170
O         3.89232038031058    2.35072598354820   -2.69160589823740
S         1.50923359613367   -0.43926866788468    0.98902248972669
C         0.84294096494260    0.34264465458329    2.43968329982459
O         0.42546589469923   -1.11740072570892    0.30381146486370
O         2.65355353125634   -1.22427134744656    1.42801270437564
H         1.05212574569592    2.73341077404542   -0.97702192881789
H         1.29207325729013    2.86622026987709    0.73953725652397
H        -0.11125401616128    1.90053269886076    0.04760565193364
H         1.81557179454395    0.54311681699342   -1.08732404699125
H         4.91368735224918    2.65533621218768   -0.23456816234051
H         4.83438373110867    0.12483722362050    1.24468746313406
H         4.96383605665772    0.47360439591600   -4.39642190325193
H         3.98129018055530   -0.83014659539728   -3.81736985792524
H         5.80724482914817   -0.98286295554579   -3.81965356729966
H         6.49301966344213   -0.70721741348669   -1.28626302977609
H         1.17792320864247   -0.15225896912186    3.35204009539216
H        -0.24471648378494    0.36088669345447    2.36368866089565
H         1.22183335583244    1.34700514378859    2.64548088044940
