30
 energy: -57.475245186769 gnorm: 0.129412244707 xtb: 6.4.1 (79825abcba525fcdf90b791dcacef51065a7a4e7)
C         1.31512408619782    2.29255748378501   -0.16455361703647
C         2.12077401842241    1.00614949307605   -0.03608455709966
N         3.45336090044265    1.15278325730167    0.56604189535103
C         4.62022516048020    1.45347730787254   -0.22694154308898
C         4.48928291604080    0.09143804477437    0.44277530453952
S         4.33204872994562   -1.05658089449853   -1.03076110544156
O         2.99309390526246   -1.51988621986777   -1.32662763114684
O         5.39411744557800   -2.02367183307525   -0.83771597110842
C         5.07387835239778    0.08553906933116   -2.22006200814580
C         4.59480438814470   -0.18100785181156   -3.63116856689598
O         6.51231313541624    0.04146528646705   -2.08534313055818
C         4.56353851662062    1.42741550155226   -1.70337553283777
O         4.20953337330923    2.40820600872120   -2.33797390405867
S         1.23062984461682   -0.29511663571005    0.95636595699587
C         0.55838118423014    0.63806632199846    2.31172657471444
O         0.07281050484504   -0.74783396369397    0.20908350548231
O         2.25868149075503   -1.24676581044193    1.35118666098165
H         1.46728178025670    2.86722927649400   -1.07991916868938
H         1.53605264445235    3.00589550227302    0.63290620219477
H         0.24489222390707    2.07649092240918   -0.06986267003416
H         2.27133283180448    0.50804119895725   -0.98757643523644
H         5.26706749419568    2.21525493894278    0.19983586424134
H         5.07387769553292   -0.12038825860932    1.32850371913189
H         4.90466275143444   -1.21851508900214   -3.79362828069902
H         5.15337084721303    0.52854740691236   -4.25324152788895
H         3.51095053379560   -0.10737062994279   -3.76075643390541
H         6.72581387113448   -0.88602345404820   -1.84019803879841
H         0.79351185993559    0.09624963102586    3.22861580565747
H        -0.52672509076870    0.58391449437227    2.21835294515643
H         0.94879861400760    1.65777078040172    2.26244038260826
