30
 energy: -57.471946844889 gnorm: 0.129088374517 xtb: 6.4.1 (79825abcba525fcdf90b791dcacef51065a7a4e7)
C         0.63684145201750    1.46510728858400   -0.47673466030398
C         1.84719980816212    0.58507094673878   -0.19214676951412
N         2.94741188429411    1.43306493878613    0.28773378546202
C         3.91313730970043    2.01769515316881   -0.61026030003242
C         4.30970331886646    0.83443575559369    0.26349575631362
S         4.56250211410140   -0.66389726746866   -0.83426138892989
O         3.49313224555240   -1.60218314872118   -1.10082566542209
O         5.87691500839848   -1.18769952609660   -0.52046019142005
C         4.82417183940089    0.39698885110809   -2.27482913879086
C         4.70401674164575   -0.25163955061695   -3.63740933748383
O         6.17983023759920    0.82156463924098   -2.00816078665566
C         3.94225704128797    1.61832233612468   -2.03272420373502
O         3.40198255755865    2.06399322147057   -3.03245698418888
S         1.65925460646351   -0.68838945056606    1.15454673394240
C         1.05469062349263    0.21157620435103    2.56320400622142
O         0.66914292565425   -1.65071343521757    0.71009080197233
O         2.93590308788869   -1.24067903994269    1.58297945167803
H         0.90875837059073    2.24355199193186   -1.19184218168960
H         0.19471114082863    1.97441587403588    0.38275837662751
H        -0.07417757806238    0.83042723791242   -1.01773424540346
H         2.03511683026778   -0.05408960894263   -1.04787895190364
H         4.09132446093655    3.04715872385227   -0.31142367174795
H         4.96196687420298    0.84369940183510    1.12697873286907
H         3.75449398293438   -0.79354180749246   -3.57761715162632
H         5.53389097131955   -0.96814923067393   -3.65645045431113
H         4.63665317619771    0.51319411260399   -4.41679771970386
H         6.68893743971427   -0.00757639941934   -1.86941988274491
H         0.01029475025778   -0.07992033383146    2.68069720174932
H         1.27182426015244    1.22840581472316    2.23454428820643
H         1.69782241729788    0.08981858465791    3.43853746164722
