30
 energy: -57.476587031370 gnorm: 0.130406478146 xtb: 6.4.1 (79825abcba525fcdf90b791dcacef51065a7a4e7)
C         1.38774669780294    2.21921934606870   -0.18774591264086
C         2.09276116209312    0.88207110076055    0.00043154082688
N         3.45306320461986    1.09270395433617    0.51526932188896
C         4.59106968438806    1.49316183403966   -0.27554431350498
C         4.55251072766474    0.10374854347271    0.34804287795213
S         4.46171407054147   -1.05478260258575   -1.12285526955600
O         3.12745271659362   -1.36661483727171   -1.58922006930716
O         5.46152022110986   -2.09652475151236   -0.99762663763281
C         5.11514979196262    0.14864661365166   -2.30351852288570
C         4.81335227292469   -0.18364255125944   -3.74929963273352
O         6.49810145865765    0.27359005257043   -1.90224539071722
C         4.45718788612301    1.40675211336195   -1.74467983400662
O         3.81728871224788    2.11357943808205   -2.50685361475778
S         1.15938586506942   -0.26704035266432    1.13134337594668
C         0.42543721145225    0.66806535819140    2.45295140626956
O         0.09993951637968   -0.82066490582395    0.30975774032075
O         2.16407700960815   -1.19397973143589    1.63113215312136
H         1.62789591029708    2.80085639368309   -1.07955331110924
H         1.54948520098182    2.93689487154899    0.61995776117748
H         0.30000841086693    2.08560847992795   -0.19232144039083
H         2.13942687324026    0.32642115123950   -0.92972545872652
H         5.06125245081767    2.35620789571441    0.18805992838132
H         4.97109123972666   -0.13412340526946    1.31724031271491
H         4.57865302782230    0.76962906406681   -4.23408424725995
H         3.93401871720643   -0.83786448596733   -3.71457095990104
H         5.70468776054991   -0.63019885445368   -4.19992491968352
H         6.87965143405234   -0.61424382429620   -1.72312345724639
H         0.18865589405111   -0.11150852733176    3.17802849693164
H        -0.48892326550865    1.23485190920904    2.27461294715893
H         1.24846339378113    1.23101829748564    2.90057174932603
