30
 energy: -57.474969178184 gnorm: 0.136240140025 xtb: 6.4.1 (79825abcba525fcdf90b791dcacef51065a7a4e7)
C         0.48419199220197    1.43189852524749   -0.27559837114599
C         1.70732762298125    0.52576770821486   -0.21825912550551
N         2.83402500210376    1.38335097408607    0.17537709970310
C         3.86393846720266    1.97251158460203   -0.64497640475036
C         4.20984818741133    0.83026546961265    0.30182756250496
S         4.67533628880052   -0.52184040896268   -0.91024097675132
O         3.56679251072797   -1.41807303786795   -1.16101301069115
O         5.98085800202611   -1.09519585716815   -0.65063001009950
C         4.96976240627302    0.48623484014036   -2.38207092457554
C         4.75602386352126   -0.28528211254851   -3.66692821941335
O         6.29510512177707    1.04441065975654   -2.23683753232066
C         3.90411543812758    1.52765268335578   -2.05360563724413
O         3.02956439185879    1.75941086889895   -2.87301600914250
S         1.63906962556096   -0.73185165239756    1.15445446246168
C         1.47289567198085    0.08290163030336    2.72554147572851
O         0.42535618622405   -1.49845428487824    0.94672926701607
O         2.88995196491436   -1.45962216948678    1.30954532061234
H         0.67231649705378    2.24659280520187   -0.97715102793743
H         0.18888690751048    1.80114048476997    0.70931685580475
H        -0.25008500109587    0.76395791746479   -0.74007659220224
H         1.93873830277268   -0.09813127353120   -1.07459772097459
H         4.01106975527889    3.03996268148339   -0.50444298588227
H         4.72406030522172    1.03590863360128    1.23157648327084
H         3.77210063278249   -0.76310190845585   -3.61783697470286
H         5.53374926379138   -1.05726181747477   -3.62654926017600
H         4.83296959597620    0.41061155397296   -4.50762197624358
H         6.78008175570496    0.54082316528931   -1.54610506299749
H         0.55729555544074    0.67209509700605    2.66178327245880
H         2.28029773293949    0.78333993417409    2.94139971104185
H         1.39292052676971   -0.71992949532452    3.46291400066996
