30
 energy: -57.473359816312 gnorm: 0.126860296703 xtb: 6.4.1 (79825abcba525fcdf90b791dcacef51065a7a4e7)
C         0.59230668669756    1.43422898125150   -0.35636833139638
C         1.78692408181624    0.50706605080888   -0.17284775426857
N         2.94968326585457    1.29588643544576    0.25796428022607
C         3.97514518734832    1.90405372596027   -0.55405310531651
C         4.29757741379258    0.66519489605223    0.27183050357824
S         4.52272984312730   -0.69050298039259   -1.00306920842339
O         3.40593244485019   -1.59032615110064   -1.19818630424236
O         5.78786323819450   -1.33518063354585   -0.71263938577724
C         4.80454597008282    0.42425408680874   -2.39844807753514
C         4.78870741664985   -0.10098064598895   -3.81818694714539
O         6.11465043617995    0.89202528960003   -2.00601631252210
C         3.93380012655841    1.61289663063479   -2.00224786961768
O         3.38308750554294    2.26435236219610   -2.87534911755296
S         1.71163784675771   -0.69888111328688    1.24511966989585
C         1.01384935190620    0.20322624320608    2.60858753996253
O         0.83818362752998   -1.77476361666612    0.81676907511268
O         3.09534756530187   -0.89612365726182    1.65114001591486
H         0.65746551509075    1.97234967462233   -1.30371946755922
H         0.52639884840781    2.03215360221210    0.55563223159144
H        -0.36929213594080    0.91138369194123   -0.41121248726849
H         1.92566221799042   -0.23608380870183   -0.95040588848218
H         4.17303580961977    2.95161510405703   -0.34356899864561
H         4.82350504398664    0.69283641301636    1.21722583859705
H         4.80231226338513   -1.19484217557925   -3.77226860967880
H         5.68238619857126    0.22825734062159   -4.36167614342300
H         3.90406836357572    0.22128882657982   -4.37542187643076
H         6.65164039230073    0.24521584182322   -1.49690594219580
H        -0.06312671745379    0.06903467019186    2.71653563282591
H         1.31710421085355    1.22799999815388    2.39183439757592
H         1.41637736074280   -0.21536895109151    3.53454722914396
