30
 energy: -57.469877178906 gnorm: 0.123982657744 xtb: 6.4.1 (79825abcba525fcdf90b791dcacef51065a7a4e7)
C         0.42924749073113    1.27878391716506   -0.50569454472772
C         1.70252600847924    0.45021961103808   -0.39315725176330
N         2.83596802130394    1.23413033317838    0.11737059992214
C         3.99336338680445    1.86079231042764   -0.47300435874340
C         4.15471024013912    0.57991539287890    0.33578424480207
S         4.59426168465511   -0.74938233330163   -0.91070751030725
O         3.43276865498084   -1.50660793340877   -1.32607744097203
O         5.82805707684141   -1.43104276880680   -0.57364779878678
C         5.01581948792933    0.38917442678123   -2.25054457545515
C         4.84855524704891   -0.13442030352544   -3.66109484939745
O         6.35331749600591    0.81800834579219   -1.90938940848462
C         4.10674810616517    1.56834257558601   -1.91708434804608
O         3.39022896911864    2.17479126715813   -2.69734395343669
S         1.56580105929657   -0.58825012893868    1.14745790878139
C         1.40692624635431    0.62364483268019    2.43812459518236
O         0.35481107561873   -1.38039046967808    1.04772523210086
O         2.83684238823089   -1.27204879672290    1.33529573874586
H         0.37226178036591    1.62488606686187   -1.53926101990338
H         0.49032363453397    2.21834512889075    0.04846892693743
H        -0.30812676106400    0.56136692579810   -0.12801816342466
H         1.95683189537130   -0.31473091009866   -1.11861976029666
H         4.26607105489720    2.85033466842611   -0.11623335758675
H         4.57379466823524    0.50798775479623    1.33093795352445
H         4.62563171185707   -1.20623085531567   -3.64228341807193
H         5.74030761211234   -0.03282624328724   -4.29109190486028
H         4.09239276698155    0.51511970744283   -4.11195038182579
H         6.82205553725716    0.30198597273310   -1.21662710928084
H         2.17119648123122    1.35321886337879    2.16766135424457
H         1.60339103914190    0.14612870842686    3.39858626502962
H         0.35496765112592    0.91127691754153    2.36530304501836
