30
 energy: -57.476485721677 gnorm: 0.121939359660 xtb: 6.4.1 (79825abcba525fcdf90b791dcacef51065a7a4e7)
C         0.38849536118010    1.29658767114611   -0.09659860550868
C         1.75312637316135    0.61992175576755   -0.11468350636339
N         2.84820155617684    1.54408680789393    0.21177451940150
C         3.81629654241785    2.01641934208147   -0.74765547841043
C         4.18506613852598    0.89019742039135    0.20965880907392
S         4.39717205282928   -0.62762562080704   -0.86978730666657
O         3.28299944163481   -1.39113470520262   -1.39003928516147
O         5.66585438588561   -1.24216770440528   -0.53318007188961
C         4.87448884830447    0.40083439705043   -2.27819935718345
C         4.86616686807318   -0.33708607797980   -3.60001059967897
O         6.21047866227952    0.88929748636585   -2.02183764481551
C         4.02180750483872    1.66126248291774   -2.16729584027827
O         3.58096439942363    2.23323282263157   -3.15141577619496
S         1.80888288316055   -0.70510424482668    1.19367635025618
C         1.19332138520127   -0.01549764639904    2.71199050735778
O         0.83076706121760   -1.73727159398853    0.90758254122826
O         3.20223107000181   -1.12532419499381    1.21381961586419
H         0.15114117209168    1.64333879099083   -1.10393190617023
H         0.56810834102974    2.19516652150714    0.49829462020187
H        -0.41807566970522    0.67575125200085    0.30966816230373
H         1.87241563407511    0.09231182304063   -1.05463800480811
H         4.06507384591821    3.05872687824936   -0.56722828615159
H         4.85823528903258    1.04262786055314    1.04317216617780
H         5.45091866436813   -1.25676214853511   -3.49471153354814
H         5.36231146383535    0.34328982420553   -4.30241297370762
H         3.84965888280415   -0.58879631448189   -3.91672514958801
H         6.82580496417317    0.15160038287378   -1.81425496347893
H         0.12409846986004   -0.16577412881143    2.55798739341181
H         1.48893026030372    1.03391380441275    2.73338403568335
H         1.52084811718355   -0.55719045130074    3.60302767028461
