30
 energy: -57.468669420779 gnorm: 0.122596277262 xtb: 6.4.1 (79825abcba525fcdf90b791dcacef51065a7a4e7)
C         0.40709764544442    1.30460402474937   -0.27063265341695
C         1.69598880537120    0.49720764649831   -0.18523772545635
N         2.88091645360405    1.28396232444654    0.18463937618625
C         3.76340005402837    1.86262420967956   -0.79881624318833
C         4.28032226537030    0.77956562287061    0.13958292810542
S         4.78329808039302   -0.65103974528920   -0.96239856265061
O         3.62886272690616   -1.46780076037575   -1.27089379201615
O         6.11005331563524   -1.05459548490670   -0.54122807744432
C         4.97653861918912    0.46022443306960   -2.37552837109823
C         5.14886326888916   -0.08336953056016   -3.77788020399921
O         6.14541156743836    1.19117690200465   -1.94121187470095
C         3.78295935482209    1.39441180828218   -2.20029564953868
O         2.82213527801875    1.61841176163249   -2.91906255062691
S         1.53200252079563   -0.69147377152284    1.23980725265327
C         1.59504674452601    0.34763523292342    2.68065040899822
O         0.20459473705927   -1.27053992613345    1.32105151141435
O         2.60637278285130   -1.67331117948544    1.25136455629133
H         0.36746769749193    2.01039715063980   -1.10224509795716
H         0.37297962707392    1.95560639156687    0.60608543184060
H        -0.36157617630125    0.52976060068600   -0.36965587945743
H         1.80757305063760   -0.20485776440467   -1.00424306704289
H         3.95860716029724    2.92985219575971   -0.73743455338955
H         4.89739584922601    0.95436771025679    1.01124839313343
H         6.21642630203346    0.06231475585467   -3.97258996242762
H         4.42406835028627    0.46164216125704   -4.39438203274479
H         4.97248220573536   -1.15898499318399   -3.87219738323300
H         6.78628205009560    0.54989756452945   -1.56179142231517
H         2.12256822770209   -0.18143865104866    3.47521918079704
H         0.55815240670343    0.43584338205596    3.00649720999497
H         1.97419929718151    1.35535038365210    2.49248665722815
