30
 energy: -57.473313488756 gnorm: 0.134986622744 xtb: 6.4.1 (79825abcba525fcdf90b791dcacef51065a7a4e7)
C         0.65449675702190    1.29012274471926   -0.42729867875257
C         1.77640643992235    0.28582983134697   -0.19678613065900
N         2.94575948828422    1.02620050411214    0.29749134742169
C         3.82972849365876    1.78689267800401   -0.55148336830528
C         4.38808804087718    0.65964227425332    0.30779460358045
S         4.86068175561669   -0.61641948304961   -0.98150799634159
O         3.79552166050792   -1.56514458969370   -1.22715711682447
O         6.16589078730102   -1.15837752891882   -0.66021042920645
C         4.97747447469264    0.54791200959743   -2.35986842598903
C         4.86711356902993   -0.03791424187921   -3.75141753303743
O         6.26097883677707    1.19177762494949   -2.19482321790205
C         3.86288887201186    1.52797227522656   -2.00599721585819
O         3.08105622085640    1.89588547693323   -2.86818184874517
S         1.38667568844720   -0.73566418532683    1.31161305709992
C         1.30463538879893    0.48184251202308    2.60416786454450
O         0.04772053596420   -1.28275369992023    1.20288482323854
O         2.51381207100583   -1.64390100220296    1.46353141478917
H         0.93267558383511    1.88789768654750   -1.29711210022394
H         0.50282432190620    1.98840909353301    0.39913605421734
H        -0.26034891547344    0.68804611022882   -0.46740474522422
H         1.91172180536624   -0.22764246075048   -1.14238255342732
H         3.92252110932152    2.84040858204615   -0.30179780971661
H         4.83168589360671    0.77312899470245    1.28834443606767
H         3.85005597692752   -0.44313693385340   -3.73675276494522
H         5.67254194062595   -0.76045185640355   -3.92936262898421
H         4.92219419848367    0.76117407415307   -4.49665482464001
H         7.03198516470172    0.71407911865413   -2.57333005207977
H         2.13145984837754    1.19053917765127    2.54376941987196
H         1.16880568492559   -0.08484485378612    3.52586326108774
H         0.37406843304771    1.03675822670169    2.46006453007313
