30
 energy: -57.470941352793 gnorm: 0.143159686925 xtb: 6.4.1 (79825abcba525fcdf90b791dcacef51065a7a4e7)
C         0.59647353652403    1.37627859661050   -0.49046561217136
C         1.81347342063394    0.49169769301929   -0.25203422323999
N         2.91965376727023    1.35094768286284    0.19282534303906
C         3.94895637641049    1.93063792401548   -0.63500748293567
C         4.28291215538383    0.76069954436414    0.28179958054860
S         4.46179923275345   -0.69026678245396   -0.89151869430421
O         3.39301788443475   -1.54193946233622   -1.36832989901541
O         5.68173804968594   -1.36592019918518   -0.49685047043775
C         4.94245587972114    0.36444492956290   -2.27922840082024
C         5.00587136229432   -0.24435442048389   -3.66383039121233
O         6.21997614997571    0.92075458830187   -1.89497871212898
C         3.98665630899297    1.53296391358934   -2.05774570537764
O         3.41947668270462    2.16140655209814   -2.93714997410411
S         1.61935557921253   -0.61265956409907    1.23568937680775
C         1.33110199994850    0.37455719044373    2.68553904215618
O         0.39562445367237   -1.36493499588530    1.03445947543998
O         2.86732426321696   -1.36064224371161    1.27449404717447
H         0.90059278203278    2.02790132326814   -1.31155819923605
H         0.15407972529253    2.00359760179156    0.28694116794176
H        -0.22137582868909    0.79284860983211   -0.92839168017526
H         2.01238667669424   -0.16929041107569   -1.08848199526924
H         4.12084284099858    2.96852776910750   -0.36281484369169
H         4.71357616994643    0.64639577766512    1.26800412287323
H         4.74444396873337   -1.29994779097424   -3.53653158791942
H         6.04504836411905   -0.29090060399829   -4.01079513729502
H         4.37247021702093    0.31062796839677   -4.36222295312992
H         6.79790151258884    0.13501832986981   -1.77441814115885
H         2.20978118547939    0.93288093752569    3.01070839100459
H         0.95870721533378   -0.29409275447193    3.46228614299519
H         0.41690006878211    0.89063829893269    2.38132333074809
