30
 energy: -57.474681865405 gnorm: 0.143378924630 xtb: 6.4.1 (79825abcba525fcdf90b791dcacef51065a7a4e7)
C         0.67030123517139    1.49383296885209   -0.48159423425205
C         1.71081890827567    0.43302841550555   -0.14627608240434
N         2.87344350260201    1.24375614096140    0.24214428731312
C         3.85167414200205    1.77769114690772   -0.67371033320057
C         4.22860989420759    0.62878539860303    0.25297843832935
S         4.65728679015313   -0.67946832675864   -1.01929830517504
O         3.56116428243747   -1.50427604119531   -1.48103038387248
O         5.87469343006557   -1.34817583149655   -0.60544736440434
C         5.12219439328279    0.45977318676494   -2.34412868296296
C         5.35026682918229   -0.06322522602028   -3.74635422725991
O         6.23443228174870    1.18099456968346   -1.76797514581497
C         3.94509432641710    1.39915600130397   -2.09909939534028
O         3.07305635143790    1.67287106489619   -2.90818192053015
S         1.35148281994338   -0.65344215365792    1.32378087121946
C         1.37992411314812    0.46153130606921    2.70789660972738
O         0.02008000688986   -1.19451472104275    1.12747321988194
O         2.52040370182892   -1.52017239072972    1.35228344690215
H         0.86337729878796    1.85551876529957   -1.49312710611804
H         0.86992742822695    2.28214616439589    0.24800456916445
H        -0.30113343426918    0.99598420570422   -0.38408182406664
H         1.88887188610874   -0.26618757641011   -0.95591225102521
H         4.00462323684302    2.84124144444911   -0.51148645798344
H         4.79312640955238    0.59006354883985    1.17545235829167
H         4.84730113353598   -1.00773618700590   -3.97819724212876
H         6.38459366910272   -0.39460987760114   -3.89732483048918
H         5.09886521527203    0.61176313363150   -4.56984835279983
H         6.90905168764136    0.50965560437841   -1.52280847892466
H         2.34278654318647    0.96376466990412    2.60692526789733
H         1.48998999397751   -0.17030658414977    3.58981104163732
H         0.49535735978307    1.09562947745777    2.80846125628274
