30
 energy: -57.471215828489 gnorm: 0.126370277454 xtb: 6.4.1 (79825abcba525fcdf90b791dcacef51065a7a4e7)
C         0.30047475829566    0.49640748981808   -0.21593094774774
C         1.77355301866692    0.11266579111546   -0.15932423299821
N         2.62160399388027    1.27221639394245    0.15067207848576
C         3.30421790571995    1.96007086370269   -0.91783432175265
C         4.09512788686098    1.08938963425275    0.05025277946279
S         4.76917008261462   -0.37278294812385   -0.90979841499060
O         3.94629041638428   -1.53160174674541   -1.18365398019049
O         6.16553967419364   -0.46720991272667   -0.53329241643651
C         4.69308455322086    0.61747052723853   -2.42069049897251
C         4.71985987337479   -0.13650992202693   -3.73316046476154
O         5.77191959771582    1.57872501983530   -2.38475933107200
C         3.36209917381902    1.34613210719531   -2.26077107498487
O         2.47341747384015    1.40759806014046   -3.09530775233024
S         2.01903385456258   -0.82467752218192    1.43181839375058
C         1.58211310424621    0.33472388183960    2.70643195944046
O         1.04856121596112   -1.90131514278637    1.37737614619917
O         3.43299473334625   -1.09224773831195    1.64983339546798
H         0.35546559051488    1.22713250687946   -1.02482568153145
H        -0.06024479139924    0.94140616523479    0.71437024744263
H        -0.37237588983805   -0.29446024510342   -0.56642718596089
H         2.07255541022574   -0.40161719708495   -1.06609166341181
H         3.33142274594682    3.04634728923511   -0.90721907989126
H         4.77203830060234    1.55777537546375    0.75277928364922
H         4.25537324150352   -1.11818286844501   -3.59388725823296
H         5.72689674086202   -0.07638029135016   -4.16292912114356
H         4.16116892210329    0.35782531014596   -4.53344274755923
H         6.58830285846100    1.12808685731640   -2.07434402573552
H         1.10359516022614    1.23177956521413    2.31165442582120
H         2.49420064425496    0.71852239887525    3.16458226301005
H         0.96433824463812   -0.11280721180679    3.48919771209637
