30
 energy: -57.473509934560 gnorm: 0.135018728447 xtb: 6.4.1 (79825abcba525fcdf90b791dcacef51065a7a4e7)
C         0.51194094007384    1.64971931081513    0.06606782212492
C         1.74179229103489    0.76926438882493   -0.11472600219154
N         2.98663295073671    1.45706861281890    0.25560172958684
C         4.03528564145112    1.84162059726676   -0.65722855846562
C         4.22586540741059    0.63301855101712    0.25039356033912
S         4.36179312760800   -0.72753409738197   -1.03194796141417
O         3.14244909444843   -1.29830871835786   -1.56336616603545
O         5.46910258605475   -1.63717210240067   -0.81527832767833
C         5.09978178218648    0.38104665188462   -2.25489820799386
C         5.30052053450888   -0.33909848788757   -3.57128560389048
O         6.29876010256289    0.93778092433111   -1.67036058058367
C         4.05962342610457    1.48526841574379   -2.09116395590882
O         3.38615166093486    1.95041380981083   -2.99673576481666
S         1.59757884376653   -0.61512187729577    1.12353299813307
C         1.18511907770505    0.20830693761949    2.64392539047032
O         0.61436408308111   -1.59749288637875    0.70860457023678
O         2.93352668155254   -1.16667957340277    1.29510575184366
H         0.48584540137978    2.27328609320148   -0.82935231414622
H         0.72800677547900    2.32759538733832    0.89516510357508
H        -0.50848640086864    1.26099493683604    0.15917408008804
H         1.81288914504697    0.28970305985787   -1.08482022196653
H         4.31279765854231    2.88718170226636   -0.55408708038270
H         4.86370771539417    0.60551784313930    1.12419969479135
H         4.33353136766968   -0.83099181838723   -3.71893225548851
H         6.11873564667877   -1.06902443087544   -3.55816801323370
H         5.36779939352181    0.42091121937068   -4.35538600125387
H         6.86020598679741    0.20997140406401   -1.32253035602202
H         0.09705667944188    0.28216219764138    2.62966912713784
H         1.68349552183119    1.16776690743432    2.50192479427784
H         1.58589856920259   -0.31007388591551    3.51874491565679
