30
 energy: -57.474456949726 gnorm: 0.131607557759 xtb: 6.4.1 (79825abcba525fcdf90b791dcacef51065a7a4e7)
C         0.85236192274617    1.21324241501835   -0.54923358563612
C         1.93283941491487    0.25147660462066   -0.07174380717720
N         3.11797884352878    0.98597435850865    0.39280260581346
C         4.07355233515345    1.68295705052779   -0.43297332405212
C         4.46757665677514    0.37657635293451    0.24447140712049
S         4.86000027931679   -0.77539657864502   -1.18134130583319
O         3.80548249371093   -1.64633724627413   -1.65509590524336
O         6.21889360823520   -1.22058004822328   -0.94524417704641
C         4.96384716079709    0.54277745466426   -2.41455616176699
C         4.65776806523998    0.11049090774541   -3.83273272959056
O         6.28338633510756    1.12772967622402   -2.33817836128533
C         3.96490688630174    1.57638119890392   -1.90286716765323
O         3.10997129379941    2.19194071852835   -2.51943533826314
S         1.39111390966645   -0.56785156204559    1.51124166678322
C         0.46967078116581    0.58116632796519    2.50645599031324
O         0.46363735790236   -1.57647103791478    1.03542272459025
O         2.52186821850637   -1.04039485806637    2.29642142667262
H         1.08748463561117    1.57426974081419   -1.55206473534207
H         0.64192418463020    2.08151321918908    0.07959429086359
H        -0.03066485222782    0.58882277507314   -0.72646565755979
H         2.12336190081940   -0.48485406362726   -0.84481231665194
H         4.39643725791086    2.63369945245164   -0.01742133826835
H         5.04502644092498    0.34861121246372    1.15929711866035
H         4.16885251222317   -0.86759389293443   -3.77671188127205
H         5.53702665288493   -0.18803868318032   -4.41602025902981
H         4.13964617274537    0.90932832533744   -4.37158625095432
H         6.96580694458137    0.49121122027706   -2.02985967777143
H         1.00799825557180    1.52519548216803    2.41398919028648
H         0.49850276714228    0.10843209825277    3.48869717635710
H        -0.53966627286878    0.74250675982577    2.11933836383795
