30
 energy: -57.473182569039 gnorm: 0.130275927686 xtb: 6.4.1 (79825abcba525fcdf90b791dcacef51065a7a4e7)
C         1.02728851062106    2.03092845402214   -0.27419067365219
C         1.91724530020895    0.79712393804303   -0.19592865042186
N         3.15790842907645    1.24806688916050    0.45002102752498
C         4.28251778553153    1.71211882945598   -0.32504118284523
C         4.39517746480630    0.42147740391306    0.47643869360938
S         4.54226464251173   -0.85078556747676   -0.89238997412138
O         3.33701229472547   -1.43622003813574   -1.43976745547761
O         5.59693672383493   -1.78640715261962   -0.55653239111691
C         5.03474891598841    0.29310986922046   -2.20317153848257
C         4.68417198853677   -0.16210683329131   -3.60376227642112
O         6.46278464036955    0.50344257632746   -2.12793577108749
C         4.21855082891047    1.51355753179528   -1.78799421641755
O         3.49625774153181    2.18343598184457   -2.50878566022547
S         1.28677505117109   -0.52485814266579    0.95536577259343
C         1.20678228468498    0.33661293920654    2.50817607365144
O        -0.00058185016193   -1.11881904320603    0.64901250906421
O         2.43087752423257   -1.41759061390114    1.06702594214682
H         1.59308793564420    2.81063889823312   -0.78723683503805
H         0.80892659622376    2.45986606766816    0.70659132062039
H         0.10010200965568    1.83883315298295   -0.82598045517178
H         1.96321372035080    0.36317440169629   -1.18874854370481
H         4.55966178419479    2.71906451857626   -0.02487341107174
H         4.96256399439360    0.24464491057030    1.38083851382566
H         3.71053694705033   -0.65315430171581   -3.50510214769221
H         5.30664291232554   -0.99448509029071   -3.95321371763699
H         4.73199458083658    0.64162790141184   -4.34449037048190
H         6.94336409006100   -0.32092807953833   -2.36324505347436
H         1.68400615809824   -0.31542626767488    3.24073315014510
H         0.17401127838370    0.64664356304950    2.67056986639984
H         1.91129055414000    1.17168439033169    2.47693746949568
