30
 energy: -57.477888325469 gnorm: 0.139873436614 xtb: 6.4.1 (79825abcba525fcdf90b791dcacef51065a7a4e7)
C         0.52547189930747    1.43363594244415   -0.08221242062307
C         1.77265852991605    0.56018062405735   -0.12718954329598
N         2.96278634203540    1.35748674926820    0.20105466229020
C         3.99907480565511    1.87911965148528   -0.65616011451524
C         4.27145760170745    0.64885340041504    0.20003497394463
S         4.53576056664654   -0.68729510688300   -1.08792105407855
O         3.34345465399452   -1.41020415507201   -1.47624819321849
O         5.65682468289853   -1.52538317665072   -0.71196241086312
C         5.05948486786838    0.48778360822843   -2.35838896270655
C         5.25873002231095   -0.07428342057676   -3.74984965865758
O         6.28081080262593    1.04760977489642   -1.82533744124417
C         3.92735160574266    1.47049077052791   -2.07447889529491
O         3.00786728755371    1.67785321227863   -2.85006522788701
S         1.61799148870489   -0.66072674656510    1.27140671901311
C         1.00217382693302    0.37745554540195    2.57628113241579
O         0.58142885492322   -1.56811893206311    0.81741663790080
O         2.96893761133929   -1.11888430466487    1.56027685025418
H         0.48312994793614    1.90168781535725   -1.06731562972346
H         0.61628331327781    2.20555249699075    0.68557716065329
H        -0.33364614965862    0.76287487403677    0.03199415329135
H         1.80871580180716   -0.04903209870428   -1.02366952978331
H         4.24600221928263    2.88314916936760   -0.32179398011980
H         4.88926407629859    0.72713970766001    1.08509015838466
H         5.80602301328290   -1.02255700239281   -3.75846518636088
H         5.83288224097805    0.60300220312785   -4.39333496305005
H         4.27433798446424   -0.31546539827213   -4.16186689450950
H         6.76688521573443    0.33697244603996   -1.35137510557646
H         1.37030714695143    1.38313711930772    2.36983488374449
H         1.63013479807983    0.02540776705425    3.39532573651944
H        -0.07190172203662    0.34482941024962    2.77615441998620
