30
 energy: -57.471312038701 gnorm: 0.141754901980 xtb: 6.4.1 (79825abcba525fcdf90b791dcacef51065a7a4e7)
C         0.15677891766198    0.81917468783586    0.24601355659320
C         1.55555534701328    0.30673398693595   -0.07218551666503
N         2.52666102088957    1.40639811267414    0.01463681221927
C         3.23673028973551    1.94873111673788   -1.11783322284933
C         3.97875636769491    1.09912623784122   -0.09392584014080
S         4.81134539788670   -0.29796390939896   -1.02608151133392
O         4.00930885592958   -1.49365785590576   -1.17454774923335
O         6.15145572249513   -0.47952908144935   -0.50487169120271
C         4.74172582827109    0.65897800014111   -2.55859615449405
C         4.99234854902312   -0.16071595593607   -3.80642263116042
O         5.66943781882821    1.67388632145896   -2.11306516603659
C         3.32809345842414    1.20902166370486   -2.39385541806759
O         2.42911700374442    0.82670973932682   -3.12574590019701
S         2.08404239875081   -0.75318915400826    1.36582441752193
C         1.42062246743953    0.02274614001787    2.82100465135085
O         1.53137927060783   -2.07651889068371    1.14835823433791
O         3.52635025662357   -0.80336119632835    1.55461143092103
H        -0.41294573933864    1.14257935470031   -0.62697955045299
H         0.17600497874317    1.65287953871166    0.95182465155362
H        -0.33058789795106   -0.06757401620480    0.66696212699915
H         1.59306565594826   -0.33311111402275   -0.94700427323174
H         3.25304225958021    3.03524433183343   -1.10934354223807
H         4.51648708972034    1.41277788913475    0.79128858475126
H         5.43211312350070   -1.10893415376169   -3.48036128811189
H         5.53605421972345    0.45916532269831   -4.52931354073051
H         4.02721530222745   -0.33937512350816   -4.28969620882377
H         6.58592433889596    1.31992900173166   -2.13915574469827
H         0.38666156859789   -0.25995391936183    3.02235797048495
H         1.42150196067085    1.10913157510998    2.72681019277973
H         2.02910500451161   -0.32495488774357    3.65975674699366
