30
 energy: -57.468916608199 gnorm: 0.141946659070 xtb: 6.4.1 (79825abcba525fcdf90b791dcacef51065a7a4e7)
C         0.63238498239024    2.00343238196458    0.11932754274767
C         1.65992119280473    0.93776326827365   -0.23975503486978
N         2.96817945303164    1.42178883828044    0.22287342861092
C         4.13016810017677    1.80385581208997   -0.54173043059199
C         4.15519174244356    0.52650436866197    0.28806748284018
S         4.18977170637930   -0.81227237506726   -1.02359584277489
O         2.91568222768447   -1.19342232802143   -1.59491848520404
O         5.10980125212883   -1.87350214526671   -0.66602308531331
C         5.09805978855107    0.24913504821279   -2.17146904049394
C         5.42197965592105   -0.41781278010049   -3.49133166810505
O         6.36599838477659    0.47159361463499   -1.51417899635419
C         4.29248949362432    1.53145806184949   -1.98506031584998
O         3.82835077617674    2.25737288104364   -2.84970340776528
S         1.52756676228687   -0.50832470261523    0.92725828104908
C         1.75484041391576    0.12092709316896    2.57411588379200
O         0.16029562669875   -0.98781588395462    0.85952708380126
O         2.60753784362481   -1.46710180586536    0.74609907647031
H         0.96278611064215    2.98014145855331   -0.23867832745469
H         0.48970770185589    2.03199141134654    1.20211574794697
H        -0.26648413626936    1.62895125429939   -0.38350997423435
H         1.68711088869401    0.65889962880903   -1.28742503126008
H         4.53643044118055    2.77413427755708   -0.26904064921431
H         4.44366727019126    0.52881716383054    1.33109807306819
H         5.73828643751968   -1.44443357358278   -3.27960921352426
H         6.08967455304401    0.20097159119372   -4.10266574192999
H         4.57237352046176   -0.55429619436611   -4.16697678648306
H         6.72902206531681   -0.44137528049612   -1.48936674590735
H         2.50483591647394   -0.47302866591702    3.09781515375781
H         0.80677565108070   -0.08290812087404    3.07284536360362
H         1.92076554094845    1.20082762538798    2.60470629598155
