30
 energy: -57.471881469140 gnorm: 0.142538492979 xtb: 6.4.1 (79825abcba525fcdf90b791dcacef51065a7a4e7)
C         0.93336979075159    1.81450677973140   -0.61519512316135
C         1.73112140029790    0.55496321499553   -0.30284275912679
N         2.95944296533537    1.02987208596642    0.34948631711628
C         4.08085092968820    1.60380315952327   -0.35326480274676
C         4.24289660077342    0.27705474285532    0.37769163050891
S         4.58765506818309   -0.88157347957665   -1.05503370020358
O         3.43092682589510   -1.65988449429956   -1.44387889337011
O         5.77352154863465   -1.65829637848856   -0.75346530892455
C         5.08372519991101    0.40282395199812   -2.22696522531889
C         5.00612117387241    0.08254114907610   -3.70452313830608
O         6.40226030796816    0.63378203251709   -1.68170397269717
C         4.15952378801122    1.54940888378915   -1.82791790553436
O         3.51495819317714    2.22554606713812   -2.61363952157693
S         1.20151181387972   -0.45719398927725    1.16877528383354
C         1.78733621916042    0.46023414956804    2.57408182544021
O        -0.23417422174582   -0.64350774491355    1.07920710644353
O         1.97644856386633   -1.68702110260368    1.09523595301420
H         1.48161107103775    2.58001410757044   -1.16721301934701
H         0.60423978512368    2.34397716878230    0.28198783915549
H        -0.02261216241890    1.53103945631774   -1.06993917961537
H         1.83663407970356   -0.09450847449903   -1.16491597870791
H         4.38457094021907    2.53419691460609    0.11893297510885
H         4.77877892742662    0.23295833936430    1.31685184227335
H         4.18055271902339   -0.62464644196990   -3.83547759066258
H         5.96359109268133   -0.35200235338255   -4.01575170740211
H         4.75018298505913    0.94387146508457   -4.32867084796294
H         6.79518244344348   -0.26135713635821   -1.58045128034718
H         2.57268877874588   -0.21012212384707    2.92533877801280
H         1.05063077894724    0.49877922923820    3.37712980292773
H         2.14917645631142    1.42034791038511    2.19737864050816
