30
 energy: -57.473004048765 gnorm: 0.134903141938 xtb: 6.4.1 (79825abcba525fcdf90b791dcacef51065a7a4e7)
C         1.20790357754804    1.84488835196244   -0.28265054524415
C         2.01439402257408    0.58752840885298    0.01574642597664
N         3.33420173886071    1.02717224369114    0.48973631790189
C         4.36209168233642    1.60441114299573   -0.34155746131569
C         4.55147911471806    0.20862723269623    0.23873311693823
S         4.68698074765595   -0.97775897758095   -1.20629513461203
O         3.42408155359601   -1.55280032591334   -1.61787978478985
O         5.82995272307655   -1.85511438283428   -1.05014192099255
C         5.16222518786891    0.34341804296546   -2.34551409437533
C         5.00810891633124   -0.07981719611485   -3.79081715968984
O         6.50649131551523    0.61499202482873   -1.88902482806261
C         4.25660179430338    1.44705638792047   -1.80711582518865
O         3.48114231208379    2.11210686812382   -2.47521401653008
S         1.00562472652731   -0.34964487453766    1.27061652642790
C         0.77211974244953    0.71374275637658    2.67576180908899
O        -0.28177104364405   -0.64607038551647    0.67172278658881
O         1.83863859414440   -1.50056178901795    1.58666696398604
H         1.51256372628315    2.44786795916826   -1.13990868350599
H         1.16741262171835    2.58332988750617    0.52150572250442
H         0.20728752242559    1.46476980599365   -0.51786274162093
H         2.08045769674475   -0.05172938582560   -0.85781049329620
H         4.86901954666020    2.40529066721756    0.18991715275681
H         5.22613626322412   -0.14373480164105    1.00802822632597
H         5.08649315552128    0.77315541573118   -4.47281442206228
H         4.01616269222509   -0.49367781132317   -4.00807737947578
H         5.76051378313742   -0.80936406330090   -4.10482817612385
H         7.14069539240385   -0.09708708647974   -2.12702182816063
H        -0.14561903773612    1.29835442596733    2.60144928987476
H         1.71410566498627    1.26068506425142    2.72698013419088
H         0.68261493157522    0.20195408377451    3.63738196512129
