30
 energy: -57.475632203090 gnorm: 0.136585462352 xtb: 6.4.1 (79825abcba525fcdf90b791dcacef51065a7a4e7)
C         0.27861043284628    0.82624285573712   -0.20543485961483
C         1.65970163044588    0.19036487630151   -0.11233317584172
N         2.69376432700652    1.21993973959595    0.06241081413791
C         3.59986407870857    1.81246506135347   -0.89085139293848
C         4.12017244093157    0.79959490461588    0.12117169293276
S         4.81350663586759   -0.46142911813433   -1.08011334029475
O         3.83428654555332   -1.51354607756115   -1.25089613601139
O         6.14329023055770   -0.76955560975277   -0.59302513302564
C         4.91759220604666    0.62831904996723   -2.51914112461421
C         4.99814849743599   -0.05925257030170   -3.86544599215310
O         6.00056846318808    1.53530759979263   -2.21300308788312
C         3.65509727349430    1.46300604278011   -2.32562579825431
O         2.76746328482120    1.72025105877303   -3.12306900350166
S         1.75683053129100   -0.79787893099813    1.46391184325482
C         1.42114800700240    0.35345795765390    2.77596813392953
O         0.65460370633527   -1.74068287519985    1.45181164507269
O         3.10417977857127   -1.28425777477251    1.72177877185839
H         0.09365455157513    1.28896765086909   -1.17650170286094
H         0.11496692107653    1.57450416835407    0.57362131954547
H        -0.47603017008260    0.07109682057608    0.04219268446594
H         1.87777703601961   -0.53125429022009   -0.89196483749493
H         3.65106805631173    2.87109935778318   -0.65101662376464
H         4.65860383276047    1.22476622332675    0.95810494413716
H         4.56399106385879    0.70331443284356   -4.52029369936331
H         4.26563127418224   -0.87525165283315   -3.86346153620666
H         6.00964282188227   -0.42231501789803   -4.07043263539440
H         6.76061341177872    1.01421325289209   -1.87137990132340
H         1.64828206761000   -0.22899605388441    3.66966554690932
H         0.39576872298803    0.68206809969251    2.60357503200395
H         2.19820987069169    1.11571119256349    2.67698860823093
