30
 energy: -57.473570960570 gnorm: 0.135895513569 xtb: 6.4.1 (79825abcba525fcdf90b791dcacef51065a7a4e7)
C         0.30437729107053    1.19335116623667   -0.29542715120970
C         1.69271261314578    0.57241784280340   -0.20947094627235
N         2.75543069223741    1.50028445295173    0.20228065564503
C         3.69105531787490    2.03550253980122   -0.75634335564842
C         4.13494183853183    0.94197477133139    0.20697344157363
S         4.45401107642615   -0.55189492610293   -0.87954750320992
O         3.31917104520755   -1.30264322899760   -1.37300868605864
O         5.58018949455636   -1.30658878323859   -0.36702372910681
C         4.93483789536893    0.41488539245509   -2.32983272529995
C         4.96813149343965   -0.29479406396069   -3.66663018388952
O         6.17860945583698    0.86448468073373   -1.74666972576235
C         3.90558706484009    1.52255794244248   -2.12550875931658
O         3.26691501899541    1.89938220977467   -3.09508920458217
S         1.85217999040963   -0.70495684305232    1.13718872209123
C         1.63020153740446    0.24661120969830    2.62211124749110
O         0.73286854682472   -1.62204335119869    1.03706931811651
O         3.22880388630213   -1.16038479811948    1.26329088157328
H         0.27879188608596    1.98563910211178   -1.04570639353431
H        -0.01999477845734    1.55265485193642    0.68400449182307
H        -0.38631239511065    0.43597183643178   -0.68320502840902
H         1.87003085489201   -0.10906906178218   -1.03424392958267
H         3.90561838371207    3.09093253034843   -0.61184650080664
H         4.71624052692707    1.00917954904066    1.11730942530354
H         5.96177199920018   -0.68159816877872   -3.91540269403775
H         4.51413458016311    0.34057499622889   -4.43645671233961
H         4.29031927292678   -1.11484697810444   -3.41160382260478
H         6.77700196275202    0.10824322853104   -1.55709304538831
H         2.29434506557400   -0.07234270976685    3.42629990334869
H         0.58134416847913    0.12496249235297    2.89451993358478
H         1.83553553277905    1.26082358008339    2.27016906668666
