30
 energy: -57.471207868467 gnorm: 0.125990710191 xtb: 6.4.1 (79825abcba525fcdf90b791dcacef51065a7a4e7)
C         0.31725955887256    1.26587187714770   -0.20007736431019
C         1.67031099631405    0.56616268097020   -0.19111017138983
N         2.83523119997686    1.40370799205043    0.12720503286982
C         3.80195089406117    1.99888499758153   -0.76275497479623
C         4.23189710016528    0.89416649915328    0.19409420324212
S         4.41693425057026   -0.57111799601682   -0.96032443052771
O         3.24538512047428   -1.33170157677879   -1.33976360121975
O         5.59757975648094   -1.35076360702844   -0.64607903902488
C         4.98387392591297    0.48450350538668   -2.31436596957880
C         5.08773009077035   -0.29368065844673   -3.60874773469183
O         6.20278795596232    0.95500208072974   -1.69625110956129
C         3.95360551388315    1.60164192901814   -2.17801077762150
O         3.16379601038861    2.00443803825561   -3.01702266100362
S         1.75396990626322   -0.70523906092953    1.16798768239680
C         1.53557359544954    0.05968517362125    2.75762445449390
O         0.72052195776919   -1.70009275604379    0.95308972910938
O         3.18778234950022   -0.95504223435264    1.18177102336582
H        -0.04296016003997    1.23875898543727   -1.23002900411899
H         0.42860268274254    2.29577878320772    0.14704970570532
H        -0.38280641667453    0.84065196567730    0.52803185773004
H         1.70461688075608   -0.01774193162351   -1.10434349181986
H         3.88816688534290    3.05663982732345   -0.52915112523997
H         4.93378134801346    0.79045062246895    1.01124655322552
H         4.26085813262907   -1.00869885400658   -3.67086355763435
H         6.01474069405327   -0.87871672188824   -3.63745432773053
H         5.06260738601209    0.34701644176098   -4.49521866375231
H         6.79411134088517    0.17533477881102   -1.60476561104910
H         0.50631492757943    0.34898536872055    2.97319257471893
H         2.14070254913361    0.96667142985633    2.77499003208433
H         1.90800121927687   -0.56200275510049    3.57582605839438
