30
 energy: -57.474794370160 gnorm: 0.133769002312 xtb: 6.4.1 (79825abcba525fcdf90b791dcacef51065a7a4e7)
C         0.23954260690533    0.16525350727944   -0.22789520453084
C         1.72278748123015   -0.14846532266542   -0.07961585939893
N         2.54232657647533    1.06434022012009    0.05192851111081
C         3.22572555126354    1.79603933268880   -0.98652904303617
C         4.02606348952498    0.95954678051964    0.00370167053603
S         4.87900624227765   -0.30271993515912   -1.08861285195977
O         4.11681836951097   -1.50914823156648   -1.33066503630173
O         6.27948264677242   -0.42842359232881   -0.73734984735148
C         4.73950095839688    0.73718267886196   -2.56113676166448
C         4.87386383328564    0.16882373005347   -3.95780979744894
O         5.71730905235244    1.74867279337176   -2.22952647846229
C         3.40493413247244    1.46215233951864   -2.41486852339561
O         2.61544715504066    1.55793497323912   -3.34089269180947
S         1.93273605105376   -0.79550028320747    1.65470693453626
C         1.58347862575866    0.51159362778135    2.80764919566768
O         0.91989523532908   -1.81459071711030    1.85354816705998
O         3.30128630375133   -1.27466065682712    1.78074371444534
H        -0.10879752657312    0.35042835335864   -1.24557057284514
H         0.07467962645597    1.08666654173827    0.33550602011180
H        -0.36607326888361   -0.62939729731326    0.22244564845509
H         2.13774815615241   -0.89033050173795   -0.75308473248148
H         3.11273978317212    2.86307741521143   -0.81473534022289
H         4.50018166673779    1.16226304276221    0.95515021298333
H         5.60897698584543   -0.64133622706329   -4.00337434429059
H         5.19428680054127    0.97725646657244   -4.62579599166147
H         3.93226513872447   -0.35638506174677   -4.14355762780373
H         6.49874955966512    1.26623491533733   -1.87950009198316
H         0.70837214794221    0.12598349731182    3.33208327418523
H         1.35448221304281    1.48824599702078    2.38007759259767
H         2.43193566019993    0.69692709750726    3.47129386437911
