30
 energy: -57.474777377068 gnorm: 0.129570527370 xtb: 6.4.1 (79825abcba525fcdf90b791dcacef51065a7a4e7)
C         0.73343721133261    1.68548160946860   -0.36802567251216
C         1.84779068185319    0.65788687140962   -0.21740357661656
N         3.03101508788416    1.34697385274310    0.31643598124914
C         4.09309408421460    1.86811730008793   -0.50891821895879
C         4.32332657852587    0.60892687465182    0.31706601546011
S         4.46109721615193   -0.76483128910673   -0.95091954448002
O         3.29614015513787   -1.52316618342706   -1.35439455570320
O         5.61928063786142   -1.59582721841482   -0.68904515869684
C         5.02658825244837    0.37899862702274   -2.23195773528053
C         4.84901829218037   -0.08336814788721   -3.66250543483127
O         6.37515337242828    0.77337136090004   -1.89279912370204
C         4.02367997636666    1.49008656500311   -1.93581148398356
O         3.36389597442194    1.98328510077406   -2.83660281887143
S         1.53879998272595   -0.60771778716889    1.11427874096973
C         1.15161712369290    0.32152063466597    2.57932361664153
O         0.37140556529920   -1.42878749829830    0.85550380148359
O         2.83883327789374   -1.22515415105010    1.33129370751241
H         1.02269012291819    2.39525712456725   -1.14510044412068
H         0.63465771937245    2.17480430363313    0.60378121970589
H        -0.10165455382947    1.07143199563717   -0.72385174150996
H         1.93194007984252    0.05810330982003   -1.11701193303134
H         4.58748918750746    2.82618949502930   -0.37282913539400
H         4.79120881135831    0.50258253554846    1.28707289724103
H         5.64110762239691   -0.79500716612932   -3.91743882168304
H         4.97001585137372    0.77535369669529   -4.33362115313983
H         3.93646071024703   -0.62379852081327   -3.93107256752843
H         6.79389945896476    0.09470753756626   -1.31835924534451
H         0.34369590651403    1.04858995906043    2.48892932800201
H         2.02971165476811    0.93040131811526    2.79685750115398
H         0.93300439475678   -0.39553321168970    3.37474447176018
