30
 energy: -57.474723557126 gnorm: 0.133836012610 xtb: 6.4.1 (79825abcba525fcdf90b791dcacef51065a7a4e7)
C         0.90297996835079    2.04188443871482   -0.25229726074724
C         1.91917119918292    0.91404224540882   -0.12680224625779
N         3.23249467476003    1.30202610764491    0.40657895132071
C         4.38854473202292    1.70222083354561   -0.35775361552767
C         4.40185426887008    0.38150759252618    0.40142808621126
S         4.45184676387821   -0.90541773579815   -0.96066720042020
O         3.13778856564970   -1.28367642885291   -1.43517774854065
O         5.44412437886843   -1.86347725617034   -0.51566343148021
C         5.06246135353592    0.18755256302354   -2.26517921200654
C         4.78449462888878   -0.30600582096202   -3.66907217932137
O         6.42505146978128    0.47109703308045   -1.87513176802359
C         4.31846657082844    1.43958765300912   -1.81029029979511
O         3.76548633043437    2.19128625037261   -2.59714912810319
S         1.29860833453658   -0.45238951665409    0.97699763407678
C         1.13818230095768    0.37474232112483    2.54220289515674
O         0.02751157282677   -0.93780603046077    0.47439093303749
O         2.39032039727894   -1.39892188023553    1.15207185808151
H         1.05954987795149    2.32465916669457   -1.29480291862522
H         1.22134254562408    2.81205213335277    0.45416555731348
H        -0.10632771191172    1.63900849833985   -0.11074742188583
H         1.98885146724719    0.41540239025707   -1.08733313352974
H         4.93434305794491    2.57662449447637   -0.01370195935932
H         4.97724831830528    0.11005653863079    1.27685498674934
H         5.72574765635493   -0.83640226833427   -3.84669249935004
H         4.81063181333657    0.53288304768675   -4.37477908534655
H         3.91726654250001   -0.97266711148072   -3.64826825169144
H         6.90899437639101   -0.38392595562194   -1.84965637118676
H         0.90467023451987   -0.34058925005656    3.33170304153268
H         0.43671146505308    1.19635007150107    2.39385851881974
H         2.12172575749026    0.82662872507915    2.69416679744954
