30
 energy: -57.469303430410 gnorm: 0.127136877484 xtb: 6.4.1 (79825abcba525fcdf90b791dcacef51065a7a4e7)
C         0.80096537208311    1.90795462887943   -0.05995115720502
C         1.84168628717609    0.80132248183890   -0.17258722350435
N         3.13480903321755    1.37990156586818    0.21846944787160
C         4.27477100734586    1.84810691375214   -0.53125203335211
C         4.37795577626562    0.56424586005840    0.28230261661902
S         4.33923111809416   -0.84315437232104   -0.95531792717724
O         3.09334600924720   -1.34863350693226   -1.49127500578942
O         5.37409147421952   -1.77292196754948   -0.54897136686147
C         5.07416606403779    0.22439696914458   -2.21602827962835
C         4.74035266793046   -0.10441776638385   -3.65555262222599
O         6.43797770022095    0.37967875488554   -1.76315778159149
C         4.38049818771630    1.56224783570318   -1.97723138579446
O         3.96685918391112    2.30168894440874   -2.85593177404645
S         1.48329979049893   -0.58964858821452    1.01373769776938
C         1.04563520490009    0.22190812315970    2.53346678949305
O         0.25416353034705   -1.25360750645487    0.62346564727474
O         2.74857960458822   -1.27143614393228    1.24317711812311
H         0.92244028206134    2.47995750600251   -0.98155317822089
H         1.04353390655263    2.51009219962776    0.81879429797606
H        -0.16393743557647    1.39296772708598    0.00931960480957
H         1.87369202589468    0.21284738330923   -1.08296589552060
H         4.81025428335010    2.70986421822574   -0.14204626713810
H         4.96133046325904    0.54597103329782    1.19360732526373
H         3.78475916386017    0.41453589830277   -3.78343843019025
H         4.74987920052732   -1.19775858500821   -3.73894939968082
H         5.49104218564710    0.37559600952214   -4.29038067446818
H         6.67475903776929   -0.54420387695589   -1.52590364645370
H         1.34145468285930   -0.54514400148460    3.25016721335040
H        -0.01902533443879    0.41522239866265    2.66850089720960
H         1.59741883088317    1.16205075342369    2.61295732751849
