30
 energy: -57.473879062344 gnorm: 0.130882634535 xtb: 6.4.1 (79825abcba525fcdf90b791dcacef51065a7a4e7)
C         0.85704177485982    1.89474079100741   -0.30324894082240
C         1.76860943616398    0.68257245539059   -0.16142530327224
N         3.08361611405387    1.13662011427077    0.31232957503800
C         4.22022564343763    1.64503185219470   -0.41598911515132
C         4.29335260175311    0.27273310725833    0.24148033250719
S         4.61330536464576   -0.94248624387899   -1.14950915379816
O         3.39913837076058   -1.58949682556076   -1.59913640714484
O         5.76198463934603   -1.75429526064115   -0.80019080039011
C         5.17301878038694    0.32549773624139   -2.31059629755543
C         4.99637480100286   -0.00552744662876   -3.77722511113996
O         6.47631293220598    0.56119449985403   -1.73175461889110
C         4.30079487513972    1.50271951275376   -1.88466394016730
O         3.84177365073052    2.31858417094777   -2.66802153440289
S         1.20018176293444   -0.45823532497938    1.19727105425173
C         1.09061126286872    0.54424168747145    2.66109660513307
O        -0.13451023976542   -0.84997313614736    0.78609176089266
O         2.18441309798051   -1.49353115322271    1.47630681192274
H         1.01415684876547    2.38729690494921   -1.26449659737538
H         1.04478332965435    2.55847090995869    0.54399255973681
H        -0.08828270111184    1.34037161200748   -0.29409331837850
H         1.72545111850936   -0.04319476599227   -0.96610905308812
H         4.52613753107106    2.54913635111177    0.10349342412033
H         4.95083438999175   -0.02534299524516    1.04770894222458
H         4.62306325258213   -1.03219744821289   -3.85080382361015
H         5.97423893721926   -0.00172359475304   -4.27341780063521
H         4.34467915262403    0.67769127211495   -4.32990910549325
H         6.75685395835323   -0.28655383078067   -1.32122624655425
H         0.11048711050349    1.02146550173336    2.69503331225726
H         1.90646578758831    1.25780878534306    2.54147188184707
H         1.32162306425714   -0.01563387044386    3.57094548705951
