30
 energy: -57.473831328448 gnorm: 0.126244781707 xtb: 6.4.1 (79825abcba525fcdf90b791dcacef51065a7a4e7)
C         0.41927230757249    1.65343770055480    0.04879552977975
C         1.67500236696771    0.81565628213561   -0.15537570452306
N         2.86165355553629    1.61315516247257    0.18477172197060
C         3.82539058509525    2.00647557464775   -0.81388809982680
C         4.16536227904263    0.89555422965104    0.17155092176837
S         4.40565574999606   -0.63266236397615   -0.88712416079568
O         3.26596265248051   -1.28261400987263   -1.49839441680413
O         5.52401724133046   -1.45745207604742   -0.47540732256650
C         5.01811302987538    0.44845075775128   -2.20062191156252
C         5.18989365460452   -0.31575688247427   -3.49609825096338
O         6.21380074724114    1.03104834637695   -1.63485055010045
C         3.86107725243050    1.44286764614810   -2.17947322640425
O         2.97199084375929    1.48890901642005   -3.01457216420708
S         1.73423190743341   -0.64090064421229    1.00459927349372
C         1.55140128873186   -0.09303244345188    2.68571928734504
O         0.66274713262028   -1.57608845228164    0.71951365644751
O         3.06131016677239   -1.23845773332024    0.99050855075294
H         0.24408736159999    2.27830713231746   -0.82878190965540
H         0.67264677259434    2.41884201576799    0.78606097837892
H        -0.33212478048385    0.89446673952130    0.29458583612887
H         1.83796169136886    0.28431178385524   -1.08662963329224
H         4.17918591962119    3.00531486799394   -0.57306004603671
H         4.83842353455641    1.15175663068724    0.97931651463916
H         6.00031695764477   -1.04882097401974   -3.42785062393511
H         5.41181226495644    0.40725417624581   -4.29010521715589
H         4.30477654907578   -0.91763811075656   -3.72250790084382
H         6.83441741000781    0.27406287219155   -1.54697567569453
H         0.65379544089536    0.52429512785072    2.73814098355361
H         2.43859538493132    0.42405552838672    3.05261620427902
H         1.59072585018167   -1.06300431307159    3.18797443307496
