30
 energy: -57.471016699516 gnorm: 0.136319934953 xtb: 6.4.1 (79825abcba525fcdf90b791dcacef51065a7a4e7)
C         0.88246242849278    1.22777041373013   -0.50017420835864
C         1.89617461357160    0.18751583475555   -0.04117573944199
N         3.12578468921539    0.88179605347449    0.36610773847697
C         4.05677487691585    1.65621255793113   -0.41769568935897
C         4.52261660380648    0.37786971119068    0.26761309387029
S         4.93701147107357   -0.67875360596240   -1.22429971960248
O         3.94457493651751   -1.72212721439265   -1.37068985704027
O         6.31731626230295   -1.09792412040619   -1.08438539168074
C         4.94145028504227    0.60440383545263   -2.49814159146025
C         4.60742597572543    0.02100716802333   -3.85455485420118
O         6.28898011670027    1.10855748600271   -2.35965421906382
C         3.97800862946539    1.62103550982133   -1.89292740575567
O         3.19009729974057    2.27428263015239   -2.55809552812952
S         1.25771708844228   -0.63468716151599    1.50380399786791
C         0.53205444743737    0.65342912365351    2.49067849261160
O         0.19658643844502   -1.55391623278962    1.13918182873749
O         2.49263159533280   -1.12523636729580    2.09773780400410
H         1.18767745191393    1.66123374482808   -1.45424289789520
H         0.60991668538145    2.01820815632210    0.20305386375327
H        -0.03975346831687    0.70953531071082   -0.78652643436244
H         2.01723177774393   -0.61329274905580   -0.76240203265640
H         4.38507054502046    2.59223204788188    0.02608206802820
H         5.03604803118522    0.26144726575978    1.21311316255251
H         4.53590211959716   -1.05273996019070   -3.65261903905620
H         5.46824911718297    0.07814095083723   -4.53142941604544
H         3.80578735609883    0.59551737988985   -4.32812446104752
H         6.87372899630046    0.42841698042588   -1.95791838041774
H         1.18044728330724    1.52926495866528    2.44555706576261
H         0.65348518117160    0.15934117900012    3.45516714616113
H        -0.45860143092118    0.98810088108136    2.17248385781931
