30
 energy: -57.475228967730 gnorm: 0.111740562766 xtb: 6.4.1 (79825abcba525fcdf90b791dcacef51065a7a4e7)
C         0.88390287695129    1.20634594031784   -0.58309476195481
C         1.90281697145325    0.17567478140228   -0.11410365781156
N         3.10873951011700    0.84835438773742    0.38898529349108
C         3.93615988832013    1.73316019009531   -0.39415329424088
C         4.54668569754307    0.49265635060369    0.24555440934704
S         5.01019801713238   -0.72086787624125   -1.10592436490210
O         4.02124652856636   -1.74472137649684   -1.36800796420397
O         6.36311418042408   -1.23744553495162   -1.04859506240959
C         4.85078251021534    0.52390767910144   -2.40757959846558
C         4.54545396918463    0.01209372093518   -3.79919800813536
O         6.12105149175979    1.20029106755047   -2.27301167285778
C         3.89255277685617    1.57913286339793   -1.86320875557690
O         3.28381462251640    2.27158009995336   -2.66317090029373
S         1.27873753885195   -0.64763370002243    1.43615316226836
C         0.76820744874821    0.70294070379027    2.47300363630215
O         0.08371192078413   -1.40310360067940    1.11194849371134
O         2.37455581878173   -1.36437676819607    2.07166193390691
H         1.13176893723605    1.73759724988031   -1.50376201437234
H         0.75676747756416    1.94494325326287    0.21183499694300
H        -0.11204874594826    0.77141684738970   -0.72439027759524
H         2.13742037968132   -0.62764411262946   -0.80385479108793
H         4.01599335846042    2.74612453287498   -0.00895338734132
H         5.17217452346429    0.44805604338051    1.12754692078681
H         4.63138843467388   -1.07942484761288   -3.79380232237860
H         5.27368935652770    0.49627813586306   -4.46077082818805
H         3.56419183468093    0.42174497892263   -4.05661809953819
H         6.91782108766701    0.63212898919556   -2.36391881045748
H         1.48731896585647    1.51953058640047    2.54781815787385
H         0.75550236494948    0.26659184534265    3.47227584027943
H        -0.17009249054876    1.05195796027599    2.03433262157090
