30
 energy: -57.470345081875 gnorm: 0.127150871941 xtb: 6.4.1 (79825abcba525fcdf90b791dcacef51065a7a4e7)
C         0.85038158657550    1.75127302215998   -0.42367582622567
C         1.85523421219265    0.63170439146744   -0.18438747738605
N         3.14753529324165    1.16298398992999    0.27118404223531
C         4.26140018920964    1.77778583089832   -0.40862147235008
C         4.42711713252227    0.40424465948812    0.22914025556103
S         4.38535710959850   -0.87416543398213   -1.14122588386707
O         3.07921444273617   -1.28399267114111   -1.61135545961473
O         5.30556694834744   -1.96678524292697   -0.89644624080790
C         5.14790184204009    0.34523528440693   -2.23702388169285
C         4.98178968744997    0.03841493095309   -3.71013245511441
O         6.46570850259698    0.42630605573566   -1.64880671523060
C         4.32830409413499    1.57919278983352   -1.87143883371438
O         3.71100215244847    2.29951077374612   -2.63959575577734
S         1.47848992140631   -0.51349945232297    1.23588717618801
C         0.90382916697764    0.46114273581281    2.60686811010176
O         0.28609902447203   -1.19698991525047    0.77223385490545
O         2.67860142965661   -1.25921212071826    1.58525047070263
H         1.25545322404937    2.46848839135042   -1.13978532214625
H         0.76976933398556    2.31734866446113    0.50727140811766
H        -0.06284326754089    1.33785079740897   -0.86656385211256
H         1.90197256033455    0.01855634439870   -1.07768565603435
H         4.65981212266310    2.69780047746798    0.01053253789636
H         4.86730531404299    0.18928782229423    1.19410874314963
H         3.91384732189691    0.22667814372833   -3.86140273503104
H         5.11630947303131   -1.03828939249402   -3.86841116557011
H         5.67922155193419    0.69954958741718   -4.23305156305116
H         6.82575528857153   -0.48817339106421   -1.64603232542857
H         1.60690016154437    1.27937926332968    2.76723576467132
H         0.98453074434390   -0.05298114186120    3.56513246660440
H        -0.09131813944869    0.84837974248132    2.37366986875624
