30
 energy: -57.483097202256 gnorm: 0.124933172899 xtb: 6.4.1 (79825abcba525fcdf90b791dcacef51065a7a4e7)
C         0.29294217075526    1.23709739628993   -0.02163452685366
C         1.65333913323543    0.58488971171441   -0.23226895573862
N         2.75327327698584    1.51632800739013    0.05480789346289
C         3.72402551588994    2.03366904849055   -0.87836421167425
C         4.13969189469247    0.98263005267212    0.14308376123803
S         4.44677361081322   -0.58667128956411   -0.83516658676500
O         3.30481403273409   -1.38855403745220   -1.21974587502299
O         5.61583995318807   -1.29092888604369   -0.34749211379392
C         4.93304423371728    0.39940567394385   -2.27056859942234
C         4.94814516257749   -0.35889793799494   -3.58073211576259
O         6.20542318619364    0.98791555362470   -1.91858248707536
C         3.95536686562573    1.57078378291298   -2.26254928866229
O         3.46277715232047    1.98856121990415   -3.29831091590548
S         1.80407706368441   -0.68371506479447    1.12365442061565
C         1.46424188511398    0.18610440135161    2.63616136142964
O         0.83005284351208   -1.73469318596518    0.89859559975054
O         3.18041390406830   -1.14797704354936    1.21621490829908
H         0.17750168659349    2.05611437611667   -0.73379912187312
H         0.22833446987516    1.55282679549620    1.02227328228425
H        -0.48473861208105    0.48520607427010   -0.19747369898694
H         1.75491508059137   -0.07631078406216   -1.08585718460247
H         4.00985204903057    3.06516586387253   -0.69083650203816
H         4.74383664813140    1.09848920927663    1.03343314262915
H         5.94941406674354   -0.78393855940184   -3.70574284653397
H         4.54307366474601    0.30366719905973   -4.35491842661504
H         4.27054675003455   -1.19147835495859   -3.36948611300510
H         6.83706168194524    0.34319978819625   -1.52962434489676
H         2.03150674947232   -0.41892112677432    3.34446377349982
H         0.41838569474021    0.17321943395463    2.94458556587045
H         1.87285021480217    1.19820609778300    2.57835591478424
