30
 energy: -57.474077209387 gnorm: 0.129976514196 xtb: 6.4.1 (79825abcba525fcdf90b791dcacef51065a7a4e7)
C         0.81546691236207    1.84501986711061   -0.22924226949525
C         1.83727983976825    0.71539052524070   -0.24528785895105
N         3.12483367015592    1.14979234346890    0.31448529717204
C         4.33488333173068    1.64079155668900   -0.29830427239329
C         4.30960003890398    0.24919955671293    0.32109021445143
S         4.47652884263083   -0.88645539808577   -1.16093623512311
O         3.28964535865755   -1.50504304379055   -1.71197684090599
O         5.54978469176576   -1.81295476704653   -0.86053307675364
C         5.07271604890363    0.39037076851267   -2.29383587440197
C         5.13030080296526   -0.15327206550771   -3.70554310843079
O         6.40708084878199    0.65665942953769   -1.80624256881163
C         4.21565940941857    1.53780683798234   -1.76763402615520
O         3.31613946897529    2.13314555416284   -2.33896615078294
S         1.36970731976048   -0.44972965648825    1.13111291223977
C         1.15733571766576    0.63240893280587    2.52525260248383
O         0.14068062997238   -1.02706088555694    0.62110142753813
O         2.42837626995227   -1.39908229520919    1.44153093672015
H         0.75201765477281    2.44214797553622   -1.14067298566268
H         1.17787576552878    2.46567794301404    0.59358584259924
H        -0.16784741975294    1.48256153348895    0.09132638501517
H         1.83682035251290    0.04640283180620   -1.09885205866431
H         4.78393260916126    2.52593218081437    0.14410964482359
H         4.76004880292130   -0.04350683107362    1.26053435037478
H         4.14264643098006   -0.06485555728752   -4.16981457342478
H         5.58101885667525   -1.15291812847758   -3.70649572768511
H         5.81762662585507    0.48775591639716   -4.26556183338004
H         6.85073642063491   -0.20533407685663   -1.64483943312981
H         1.77272106119099    1.53144380890715    2.47451018071190
H         1.46593567801732    0.01507604904024    3.36951136498725
H         0.09956364605607    0.89389295058141    2.61125512233564
