30
 energy: -57.471953783258 gnorm: 0.127482731152 xtb: 6.4.1 (79825abcba525fcdf90b791dcacef51065a7a4e7)
C         0.45260323742031    1.33913778441331   -0.42050454702650
C         1.65930833047902    0.42801859327429   -0.23571763142243
N         2.87580664355414    1.12423602047790    0.20616350087920
C         3.88394202878337    1.72580435728918   -0.63204294239726
C         4.23425185104504    0.51677152353985    0.22605944439185
S         4.77675067954975   -0.73415468690031   -1.06035356873699
O         3.61236601169805   -1.53125144226246   -1.38258631331564
O         6.05102738654214   -1.33920742787083   -0.72771065501875
C         5.16254219961286    0.51910684690756   -2.30521752488266
C         5.26069825078488   -0.06024579445295   -3.70038660228838
O         6.31582699183267    1.20905883339004   -1.77315855606638
C         3.94304140852638    1.40637030291447   -2.07364597623036
O         3.16503095341162    1.76208037080361   -2.94436681138942
S         1.32366092521460   -0.57328943008282    1.29899121596157
C         1.46652608636810    0.57006338514798    2.65253655517199
O        -0.01223791651940   -1.12806151447420    1.19160459720779
O         2.46318694687468   -1.47758417364137    1.34526422089542
H         0.31079929720704    1.91858610775657   -1.33452042288406
H         0.35319324663011    1.91592023153797    0.50201504091712
H        -0.34211251872306    0.58631255839411   -0.36827022256254
H         1.64824854260637   -0.31755135033630   -1.02319444031839
H         4.37810650329599    2.68079109543826   -0.47503638597569
H         4.81244398194599    0.55973517629301    1.13983424183567
H         4.33115821845449   -0.61285587829592   -3.87186270675318
H         6.17070985532631   -0.63171622903857   -3.91888224239926
H         5.29928801292775    0.78896334978898   -4.38908776566927
H         6.84570140518494    0.50305519130482   -1.34106365079292
H         2.53533167173638    0.68308578766190    2.83805792883574
H         1.01310761124617    0.17476247418678    3.56207245834855
H         0.93086974783066    1.47604385149092    2.35770819483797
