30
 energy: -57.468618074575 gnorm: 0.142158908211 xtb: 6.4.1 (79825abcba525fcdf90b791dcacef51065a7a4e7)
C         0.30491353289381    0.67437257722425   -0.16975130463899
C         1.77353259468713    0.27487758467853   -0.10663690323036
N         2.66393289107364    1.42853676297200    0.08337189525540
C         3.30137267395531    2.04134193094648   -1.05634393560941
C         4.14286875087928    1.30193445295825   -0.02388163051794
S         4.78070515233995   -0.19765905302652   -0.95036080369369
O         3.88512574390381   -1.33245238609974   -1.02226673893343
O         6.14927604775295   -0.42919006977574   -0.53331361391069
C         4.72585574079000    0.65238708072485   -2.54522724002894
C         4.86225685001679   -0.30517213135248   -3.70981125855604
O         5.66554435810151    1.75060449623438   -2.53573457253356
C         3.34641345353981    1.26062575694148   -2.31021934402782
O         2.36490338731764    1.01056075777740   -2.99146102708342
S         2.00948315769889   -0.81683346380932    1.38437031634596
C         1.43551955675440   -0.03562608090298    2.87434746614008
O         1.32037602225553   -2.08832394412868    1.27313642296427
O         3.44264878339548   -1.04746806363103    1.49045376316282
H        -0.04994951151647    1.02707031595007   -1.13978751638072
H         0.14730609248219    1.51272339067668    0.51283973678216
H        -0.31309299361274   -0.15993262734810    0.18103371976749
H         2.09864569670043   -0.45770126099860   -0.83721635665062
H         3.15331097586702    3.11660961475066   -1.00413024750229
H         4.82545789099668    1.60966003245703    0.75747185032063
H         5.92958511347854   -0.43474216957176   -3.91681032758553
H         4.31520893910517    0.13107449674797   -4.55412600193935
H         4.61131165521150   -1.32876006033489   -3.41612963791777
H         6.24225446316121    1.49204421231098   -1.78309516473746
H         0.35663873832897    0.11477174431283    2.82017831406187
H         2.11845063857961    0.78063991370632    3.11187987828171
H         1.65009815276034   -0.82456024888779    3.59973769586325
