30
 energy: -57.471079366196 gnorm: 0.138428597014 xtb: 6.4.1 (79825abcba525fcdf90b791dcacef51065a7a4e7)
C         0.52249068895034    1.46410164774721   -0.17705854256058
C         1.75680037469880    0.57270657092020   -0.22518373304713
N         2.90317783534472    1.42472438931838    0.12083631057758
C         3.86827657164450    1.96263613148520   -0.80655100997715
C         4.28408988589022    0.87230598827888    0.17278394394396
S         4.49279386185775   -0.62826416477024   -0.93116872921311
O         3.21851637993030   -1.19175032265077   -1.32320073547820
O         5.62449868933052   -1.37611048650389   -0.42078521934596
C         5.02923207863221    0.40429110577584   -2.31509412108142
C         5.19246199672694   -0.33697764972168   -3.62492520571081
O         6.22077204351809    0.88586098019881   -1.65364928726362
C         3.96089618976112    1.48785562805832   -2.20288728814983
O         3.28153840957353    1.88353392982043   -3.13664124177930
S         1.62265387210833   -0.67690621881177    1.14998200416577
C         1.37594667411622    0.18978983733267    2.68221064305927
O         0.42157316075183   -1.41044305045318    0.79890009460499
O         2.91685676006772   -1.33330740910645    1.26216974291014
H         0.56869699218707    2.15668033892889   -1.01937289217898
H         0.61985107653018    2.18614094538662    0.63705627114150
H        -0.33379849218553    0.78013571334885   -0.17966905502159
H         1.74873528384273    0.03200304830959   -1.16523229248554
H         4.30042049475799    2.93919823882805   -0.60548585393129
H         4.82700796501666    0.94929406099875    1.10576252702206
H         4.25287617570645   -0.73608034401750   -4.02080669768170
H         5.83931293429102   -1.16291211277887   -3.30577625865639
H         5.69235548889522    0.31387879019082   -4.34842159435321
H         6.53991903372351    0.04304570144704   -1.26157576302946
H         2.31238461965458    0.52399475950551    3.13046131785235
H         1.01100247969745   -0.64855797031522    3.27642892911335
H         0.55584878259759    0.91136255501761    2.64447018286126
