30
 energy: -57.476331651210 gnorm: 0.128069620525 xtb: 6.4.1 (79825abcba525fcdf90b791dcacef51065a7a4e7)
C         1.47638410835618    2.28444957648177   -0.20657895453483
C         2.10462736496716    0.89744035278712   -0.16256285859148
N         3.38762654175593    1.18642552660683    0.49336889116872
C         4.55782243584859    1.52967093452302   -0.27710863968926
C         4.50134257896970    0.19974245923897    0.46378091494937
S         4.47566814822657   -1.08114950883787   -0.90466214085584
O         3.16882462768933   -1.52702130020439   -1.33865198928049
O         5.58833598485207   -1.98254231214292   -0.68109435566566
C         4.96858461790775    0.09111202604861   -2.18997225329476
C         4.57330609454389   -0.26162365671563   -3.60810950863266
O         6.40905855070955    0.12642772546559   -2.07606899529418
C         4.41823035749740    1.44306516315487   -1.74570104427262
O         4.00109178601693    2.34309309338545   -2.45698848936840
S         1.19428511546340   -0.30107959980122    0.93536021483458
C         0.41512656216067    0.55343643442668    2.28534739925887
O         0.10974565273872   -0.87657945632974    0.16302367090882
O         2.30400993962644   -1.07050263018126    1.47841522477463
H         2.03806537728712    2.88640831674529   -0.92313569311234
H         1.50578044865504    2.90254090623940    0.69381078836439
H         0.45017150156932    2.20085052809712   -0.58200706058398
H         2.10434627988715    0.50985942256204   -1.17542885813391
H         4.99951392584370    2.42513956808823    0.15171975195176
H         5.08543218733672   -0.01872375670303    1.34822890531342
H         3.92845255694162    0.53669867789792   -3.98977951785339
H         4.02488781959874   -1.20807648376401   -3.53126964431527
H         5.46252939589026   -0.33311861442030   -4.24145382587861
H         6.72614093592314   -0.75344823124851   -1.77409034460104
H        -0.19989282666548    1.40032584855356    1.97864380620152
H         1.21324649104785    0.83571239192370    2.97268395846018
H        -0.19697254210655   -0.22632941706186    2.74572983123652
