30
 energy: -57.471351112055 gnorm: 0.147578773115 xtb: 6.4.1 (79825abcba525fcdf90b791dcacef51065a7a4e7)
C         0.46042383534104    1.49009807600267    0.21020158368089
C         1.73640432597477    0.72416880515542   -0.11483343645194
N         2.91722816003711    1.56241019241275    0.13586951657148
C         3.83475360244343    2.07784966866061   -0.85068055172012
C         4.29818373450653    1.00769915827706    0.12953771487938
S         4.50538391985622   -0.54156576681772   -0.90526946383247
O         3.27688994431410   -1.23472604130272   -1.22980025419571
O         5.59312457496577   -1.38667538293041   -0.45456859607552
C         5.04773707811245    0.39267801257211   -2.35517547821118
C         4.97893548432184   -0.42284616051050   -3.62874035924276
O         6.32230365379798    0.98345897640788   -2.01511049174548
C         3.92261129363095    1.40531329411023   -2.16358794233262
O         3.06626389733329    1.65532219803363   -2.99674424381406
S         1.79783452692005   -0.71890634005704    1.06175853770522
C         1.13025443178091   -0.02874029296568    2.55767255317906
O         0.88306305869884   -1.76957416649319    0.65775365699166
O         3.20120033189742   -0.94787664698887    1.37247825473285
H         0.23089086359424    2.09547383156614   -0.66850686529758
H         0.43632382648494    2.12658609397261    1.09784166408202
H        -0.30310267211829    0.70624962965098    0.14973455670734
H         1.78814498569524    0.21566059358907   -1.07131601953509
H         4.07372922252307    3.12168627272189   -0.66589709954491
H         4.77368647831568    1.22922792263596    1.07608852067833
H         4.15681579230765   -1.13500304950397   -3.50312822283125
H         5.90698226234107   -0.99274659143103   -3.75673489128007
H         4.87984097503951    0.23557998685888   -4.49684744955540
H         6.73810943397667    0.30527217973802   -1.43797769416429
H         0.05777454469583   -0.16748138558398    2.41598478357151
H         1.31218790486694    1.01464968125911    2.81718027276596
H         1.43679163843024   -0.76463044832142    3.30543769064546
