30
 energy: -57.479978301182 gnorm: 0.126067243170 xtb: 6.4.1 (79825abcba525fcdf90b791dcacef51065a7a4e7)
C         0.49007531644729    1.61091675714333    0.26009875350253
C         1.70609621934299    0.77653152646266   -0.12136693115605
N         2.89265850865300    1.62737707322393    0.04589726994099
C         3.85975897235401    2.05521432676282   -0.93516532646609
C         4.24832047664139    1.01670770606477    0.10950755109777
S         4.44935860180138   -0.57371370395189   -0.86215239136338
O         3.24308531116431   -1.23144156860363   -1.31744092830471
O         5.54748375285346   -1.38747496702139   -0.38003723309011
C         5.02591606472863    0.40048791252826   -2.27201002160723
C         5.13095671416927   -0.33302181064551   -3.59212774160035
O         6.28548867459596    0.83894343357783   -1.71485663461350
C         3.93126676186524    1.46329230282220   -2.28729878443887
O         3.11431577745375    1.55388598081573   -3.18972253781185
S         1.77608066542480   -0.67731910954152    1.04140076995136
C         1.09337170517193   -0.19297169855493    2.60954207658361
O         0.94794320199899   -1.78471523272210    0.60346032661350
O         3.18633322365618   -0.94782907853122    1.27893351542856
H         0.19555993751087    2.26772974087049   -0.56035912179057
H         0.59309034243703    2.15493474053160    1.20192414086501
H        -0.38954229119869    0.95964290531368    0.31633583369613
H         1.68618704282906    0.27834516858457   -1.08445083522634
H         4.11404869371621    3.11164480267098   -0.92331216939432
H         4.68135057892713    1.20610353865068    1.08303229120528
H         5.49337114510690   -1.36271389695229   -3.50717705813656
H         5.75855381411412    0.19526855588358   -4.31977538417918
H         4.18649193359336   -0.33104859294674   -4.14433876796521
H         6.70218355456223    0.07733579423267   -1.25416886117681
H         1.25395603931756   -0.95328396313255    3.37483650055468
H         0.03792660988842    0.04985248860768    2.48234636764413
H         1.72772484718733    0.61454176372944    2.98393515918118
