30
 energy: -57.470127627861 gnorm: 0.136962929425 xtb: 6.4.1 (79825abcba525fcdf90b791dcacef51065a7a4e7)
C         0.90020523670501    2.16808907395450    0.12813588557916
C         1.84628149765628    1.00939084482603   -0.15957871621262
N         3.20419882441392    1.23310334791244    0.35603648119721
C         4.34927397906683    1.56986720505786   -0.45402799926122
C         4.31014271686471    0.23964171812574    0.28744754066194
S         4.34605009683610   -0.98561226141438   -1.13080601520135
O         3.13939405064035   -1.17097820739715   -1.90837239951099
O         5.12712495938528   -2.15735450921290   -0.78807665033832
C         5.24753615886533    0.14475027057324   -2.21652663514498
C         5.30923722978329   -0.31631086851267   -3.65715026824822
O         6.44829184188681    0.39492210762343   -1.45181352357925
C         4.37901084561924    1.36292137503982   -1.91691531564051
O         3.59301305720412    1.89028514196718   -2.68768092753326
S         1.28050678703161   -0.30662150741532    1.03147906809137
C         1.13914502661644    0.58557624708942    2.56241052291609
O         0.01075799035580   -0.81623139591806    0.54985118061634
O         2.35939165724371   -1.27107728725215    1.18717818251402
H         0.81010653815676    2.66847017990524   -0.83767709175494
H         1.28230597540693    2.79142668104538    0.93995605147006
H        -0.06076814857369    1.72376179839562    0.41124506078822
H         1.86803580736901    0.62942791801482   -1.17509411326970
H         4.92392796080902    2.36017731403089    0.02140018042006
H         4.80369625759329    0.01717165786222    1.22448989019706
H         4.84734923949647   -1.30050302911668   -3.78696516018902
H         6.38819242172815   -0.26514043113419   -3.84603436763893
H         4.93727243429142    0.47644302802656   -4.31299939968855
H         6.99006495108293   -0.41959149221973   -1.35713756267435
H         1.25993393437238   -0.21272260298825    3.29566805516306
H         0.21880063559483    1.16505726309472    2.64162312877173
H         2.07772459532546    1.13223646570861    2.68440674838292
