30
 energy: -57.474758453926 gnorm: 0.137549024052 xtb: 6.4.1 (79825abcba525fcdf90b791dcacef51065a7a4e7)
C         0.23207351713764    0.65912166703970   -0.15098820126890
C         1.66359525969956    0.14278370914234   -0.08344416651659
N         2.57783842552075    1.29130027459255   -0.01333775484629
C         3.34527467583480    1.86728801684414   -1.09041305226707
C         4.05064412931309    1.07853544505301    0.00555245363898
S         4.66381443894892   -0.36517620830714   -1.02094577719115
O         3.65598902727778   -1.37189404731115   -1.27745301824104
O         5.95790019420730   -0.65371330701491   -0.43561710179852
C         4.84453667744035    0.64694812111740   -2.50826875923324
C         5.07195661726122   -0.03839487902794   -3.83881976919698
O         5.77250101914504    1.66591400993541   -2.07263473922667
C         3.43390608872381    1.22117708976411   -2.41647311846792
O         2.51483808656662    1.24436327795052   -3.21944329455773
S         2.01672150879753   -0.82350789853346    1.46967867147391
C         1.68225935960452    0.30548440310814    2.80131771954752
O         1.10995900073825   -1.95049372646615    1.57744863791274
O         3.45152444924453   -1.06335634277741    1.51682710786816
H        -0.05316274443233    1.05295282165963   -1.12814275965789
H         0.10326609890527    1.47874365710074    0.55980795028935
H        -0.43639000174442   -0.12366115581349    0.22511677772568
H         1.91296578255861   -0.64628941045950   -0.78436823125547
H         3.30539004992522    2.93675756953711   -0.90201639739261
H         4.68848581008858    1.33707443652653    0.84068836918683
H         6.00727784341134   -0.60710691124119   -3.86264117247892
H         5.16254638812528    0.85126095151446   -4.47344242840562
H         4.21458718301960   -0.67185154276628   -4.08500047788610
H         6.67700069231657    1.28627694081701   -2.01205354796785
H         1.73052490467726    1.33066947818020    2.43225997107375
H         2.41334427917328    0.05906271717987    3.57196541852051
H         0.70475764564619    0.08890826626654    3.23976641260730
