30
 energy: -57.470560771126 gnorm: 0.142911082463 xtb: 6.4.1 (79825abcba525fcdf90b791dcacef51065a7a4e7)
C         1.05554599756207    1.79327821218633   -0.57289956589697
C         2.04506207258140    0.68211245380796   -0.24641805833269
N         3.18377534524909    1.19815668240281    0.52615956191655
C         4.31573279760644    1.64913609124568   -0.24591646281294
C         4.38067946424145    0.31464557327756    0.48602210375856
S         4.59436695109120   -0.84461377426865   -0.97152213586248
O         3.38921367566763   -1.57653826952825   -1.29844865368998
O         5.80216218486932   -1.58434636162884   -0.66403615277112
C         4.93064364598481    0.34735930979648   -2.28883150991781
C         4.43991929200166   -0.12610825719432   -3.64042276538764
O         6.35481451265116    0.59342917924153   -2.26951144081425
C         4.24287848215303    1.58509968114276   -1.72048139937991
O         3.73415661624868    2.41860382861031   -2.45291405127014
S         1.36992033069120   -0.48858076765670    1.03587254604761
C         1.00042055925709    0.38289215503755    2.54045088024261
O         0.07824342056982   -0.98818699453665    0.60471822934007
O         2.30646776527320   -1.57808675639121    1.26882175011316
H         1.37808977768873    2.33318532674537   -1.46495312461635
H         1.06806099368234    2.41833757018979    0.32306187293771
H         0.03825491517596    1.40140069948850   -0.68514148725858
H         2.27150319463970   -0.06639053759162   -0.99780629902041
H         4.71929355551449    2.55114012905587    0.20616389836682
H         5.03951389566090    0.14584074928010    1.32779316933260
H         4.08836410661312   -1.16027624271441   -3.56471173652154
H         5.28333955565826   -0.05069778428180   -4.33712603218604
H         3.76322439349866    0.65946886735333   -3.98957492182047
H         6.75511058167114   -0.02743364701876   -1.62127810962599
H         0.36148340228113   -0.22995206116409    3.17741155323391
H         0.33760305804392    1.18340671628869    2.21036592106891
H         1.87153545631972    0.80462880776367    3.04833778919156
