30
 energy: -57.462983547570 gnorm: 0.150571508569 xtb: 6.4.1 (79825abcba525fcdf90b791dcacef51065a7a4e7)
C         0.34956660303050    0.46491714997151   -0.46287205821403
C         1.80725213929282    0.09775854620466   -0.21635823618694
N         2.65729726069610    1.20987517623368    0.23137543874596
C         3.31324778035229    2.01574753052419   -0.76917964810911
C         4.14001660329782    1.11799498651892    0.14258301363218
S         4.78610316241818   -0.25107912817614   -0.96294303811243
O         4.01460655288102   -1.46533535213256   -1.12220274156896
O         6.20310404068002   -0.42733824247384   -0.71482511937143
C         4.53566875942169    0.66528169022776   -2.50136797857214
C         4.67466564656085   -0.28418972230709   -3.67225001436215
O         5.75120200831954    1.44528394094332   -2.55847934273448
C         3.35438528394700    1.57571155045077   -2.17929523863207
O         2.48099687841111    1.63257434577678   -3.03014426673807
S         2.01704836800015   -0.80093574904856    1.40195640832144
C         1.55342520091544    0.28460201136510    2.73102090247700
O         1.12253245363478   -1.93560074683751    1.52965248823990
O         3.44017514599227   -1.04853564255402    1.58032174947457
H         0.14800140298981    0.86309403677064   -1.45892444844770
H         0.07529134092081    1.25508874954352    0.23998258209698
H        -0.23387109977877   -0.43892359736647   -0.25377943464763
H         2.21544802953180   -0.67582149812779   -0.85750304280521
H         3.16620917328719    3.07699374385644   -0.58756123439192
H         4.64181470368049    1.17560967446621    1.09966998048913
H         3.69083991853588   -0.71733505166505   -3.88033339261112
H         5.30081804061903   -1.15617616373671   -3.44861470989621
H         5.07777805795507    0.16902409170656   -4.58277308195661
H         6.35498373560575    1.01123992855583   -1.91585389572275
H         0.97733517851164    1.16121238394464    2.43233684941251
H         2.43552465208565    0.67442466251520    3.23998607005319
H         0.90938629069894   -0.32172872589005    3.37307152324759
