30
 energy: -57.472923294829 gnorm: 0.121414884022 xtb: 6.4.1 (79825abcba525fcdf90b791dcacef51065a7a4e7)
C         0.38609761032945    1.40249177599276    0.07113650710031
C         1.72956980782394    0.69796415469159   -0.06722861586835
N         2.85848570005876    1.62480138329257    0.09515116693426
C         3.81068073020376    2.02482448767068   -0.91188308620441
C         4.20600415355704    0.99464321433865    0.13848038121505
S         4.42350246457138   -0.56127432517479   -0.88416067118493
O         3.19190174974918   -1.12450874215185   -1.39495957198834
O         5.57900790227420   -1.35021304349405   -0.50613401935463
C         4.99794162622809    0.37875980099179   -2.31787658709774
C         4.84387113519981   -0.45275633228426   -3.57351349637671
O         6.31968429583180    0.82891639585137   -1.94432384030657
C         4.05018457323221    1.57434986556575   -2.29877184632403
O         3.58191438282744    2.06203412809209   -3.31507487545257
S         1.80814971731545   -0.67465596893267    1.18989007822582
C         1.04947523506273   -0.27337910209300    2.74653422583578
O         1.06829533453242   -1.82078752564733    0.69701320549067
O         3.22987404656396   -0.80423857896556    1.47329439339043
H         0.15265806274460    1.90407737360629   -0.86972033371113
H         0.43379569167961    2.18086485775642    0.83629202102639
H        -0.34687025614963    0.60368396108900    0.23148474378080
H         1.83323817319541    0.14294273409016   -0.99314476638063
H         4.04020754201169    3.07930139894347   -0.78442717053852
H         4.80919095866658    0.97295890151488    1.03671849328827
H         5.47866016139642   -1.32351863482669   -3.37949665204454
H         5.14191775552561    0.21307671119644   -4.39221642999914
H         3.80720108706759   -0.78544267777738   -3.68116868729295
H         6.78439437476610    0.07521973723508   -1.51782655623653
H         0.03958556698486   -0.10066237537819    2.37259651226690
H         1.39827383072154    0.65468242038432    3.20056950400952
H         1.19141018554220   -1.10811565346166    3.43770818409195
