30
 energy: -57.467456277696 gnorm: 0.138699633429 xtb: 6.4.1 (79825abcba525fcdf90b791dcacef51065a7a4e7)
C         0.90099536737722    1.93496391819061   -0.31634485610516
C         1.78466837900688    0.70845637283822   -0.12866730477739
N         3.05933647975733    1.23358264271953    0.38055679280066
C         4.12608473755797    1.67149368229332   -0.48609995290746
C         4.27450766431549    0.37779876442001    0.30455899131878
S         4.39514582769330   -0.87337883269001   -1.08611734840270
O         3.13670823042566   -1.40648266188730   -1.56269259771004
O         5.46763623275424   -1.77597759088371   -0.71787683277579
C         5.03941717152683    0.25206257849416   -2.34607048457242
C         5.04621370695290   -0.00771277248443   -3.83746292636181
O         6.40431312355595    0.43508152768270   -1.90703813686347
C         4.26223065843188    1.50326193507584   -1.94791809524488
O         4.03594049779211    2.43797450455974   -2.69964272943641
S         1.36378298831415   -0.52711327151324    1.20055477524476
C         0.90050477611042    0.39486204285564    2.64799593696093
O         0.33967568378619   -1.48925788707326    0.84081649058585
O         2.62901320282498   -1.15469971143082    1.55231817937202
H         1.30208953276444    2.69742728106560   -0.98646933721585
H         0.79530420599986    2.47731571036279    0.62614473791305
H        -0.03738579698187    1.69447495969430   -0.82884190642853
H         1.84587618120497    0.20079855207807   -1.08504263546388
H         4.71044656168882    2.52084554782479   -0.14262973624269
H         4.85192841001483    0.14671412833070    1.19017822150623
H         4.02991362994078    0.01604178869338   -4.24415261888193
H         5.34853174160841   -1.04898221383590   -4.00117511302902
H         5.75497273645006    0.74469075432413   -4.19593775702939
H         6.67934978500151   -0.46072795008246   -1.61073717762835
H         1.74901230291355    1.00519152936834    2.95955735599451
H         0.84889061089598   -0.31524285051181    3.47394611792608
H         0.01450628852804    1.03157309558025    2.58274414802551
