30
 energy: -57.476998208001 gnorm: 0.139178697913 xtb: 6.4.1 (79825abcba525fcdf90b791dcacef51065a7a4e7)
C         1.11175478107808    2.15423202769861   -0.16778892289918
C         1.99412113635273    0.91266646343794   -0.14865384016438
N         3.25991922550513    1.34930572600340    0.45710776454955
C         4.33261062244051    1.71686939198146   -0.43454327752281
C         4.41457078210598    0.41605606808013    0.35411652450462
S         4.41113937147845   -0.90609212558358   -0.97475224232706
O         3.16694452048840   -1.53057150753481   -1.37097629568403
O         5.48264082042330   -1.86299112725158   -0.78304883221615
C         5.05123999585847    0.20972039450523   -2.24535031034397
C         4.92325234407908   -0.28290748989199   -3.67108442905108
O         6.36588164131588    0.47141373983270   -1.70459136332244
C         4.21462669519477    1.43221973964966   -1.87981298641505
O         3.50859517441726    1.97589382962765   -2.71403277985022
S         1.35614054592469   -0.41387107324711    0.99322491893676
C         1.00832162661309    0.35475520941633    2.55782925806105
O         0.10989116511122   -0.87416847245987    0.41105788741549
O         2.39946238301776   -1.40919408768676    1.19126877892221
H         1.17466380657751    2.56196650251430   -1.17827830202340
H         1.52855503056601    2.83016618978257    0.58253986273832
H         0.09366086272275    1.87723637664050    0.12853110962906
H         2.01380395255642    0.41246817784329   -1.11069897990299
H         4.83795736828955    2.61276030381824   -0.08403881585011
H         4.99475955756614    0.31750347778179    1.26230414879179
H         5.94052123106769   -0.54790980919616   -3.97729418246895
H         4.61222460313729    0.58801380477343   -4.26031932757613
H         4.27609643245987   -1.16053905043381   -3.58216478650493
H         6.73368977997815   -0.43015281291884   -1.57114111855748
H         0.50051396794246   -0.48599543336836    3.03196780457683
H         0.32928188780142    1.18674855398879    2.36862357507997
H         1.85817922013809    0.76658955945980    3.10808975907521
