30
 energy: -57.467606425540 gnorm: 0.142970999149 xtb: 6.4.1 (79825abcba525fcdf90b791dcacef51065a7a4e7)
C         0.65053419365564    0.69182781629462   -0.33756272351303
C         1.92926174326790   -0.03707741240003    0.05483329849707
N         2.90830789964994    1.02740945026905    0.31594988767579
C         3.42227443795793    1.78755568510484   -0.79707659356945
C         4.35935411568969    0.89918110518724    0.01131054951598
S         4.98855224911681   -0.36662385024060   -1.21987875709055
O         4.23933858565555   -1.60380826932451   -1.16472034473254
O         6.40257316741655   -0.39085738277118   -0.90289477800539
C         4.60161632556190    0.64101178367314   -2.67044308106819
C         4.49466130902674    0.19632135687928   -4.11356188848409
O         5.65018493390935    1.63351330396627   -2.60239233138005
C         3.31396264118682    1.30289664062010   -2.18888264760773
O         2.25931987863201    1.36355953332315   -2.80046535367091
S         1.91393520292878   -0.82375494084855    1.74347528493288
C         0.77063646377678    0.19739173738434    2.64340781219996
O         1.28269287752589   -2.11353363562331    1.53869806111087
O         3.25667640423618   -0.70125612536611    2.29160832922717
H         0.60569023109199    0.70993079307639   -1.42795486895597
H         0.75786212108490    1.70989825450780    0.04403395105381
H        -0.20439844828774    0.13664900496781    0.06482271425462
H         2.22508405931188   -0.76334496365116   -0.69426031084107
H         3.44562825268411    2.86200282817576   -0.63624421284462
H         5.06320369963779    1.42881622364708    0.63997474963516
H         5.44540029817920   -0.27686193028235   -4.38005688384470
H         4.28282851245528    1.04406554602542   -4.77605458991579
H         3.65879190230013   -0.49711304296483   -4.24556833309331
H         6.43233653853224    1.20150364687987   -2.19309956625400
H        -0.25883720730992   -0.08528650671436    2.42021598034249
H         0.89557196498526    1.28067216110531    2.64455985830503
H         0.98075925936757   -0.09558060071429    3.67523517198787
