30
 energy: -57.476366699977 gnorm: 0.130480531273 xtb: 6.4.1 (79825abcba525fcdf90b791dcacef51065a7a4e7)
C         0.91022644712842    2.11865692343961    0.08144930213454
C         1.86338153814790    0.94103478627708   -0.07705334454122
N         3.16447515866273    1.36869886523755    0.45596107084973
C         4.18257015984128    1.77154709307422   -0.48319158736082
C         4.38963038406126    0.52801497601186    0.37212789503855
S         4.38424212166027   -0.80638945393200   -0.94442647761666
O         3.10213788481359   -1.28276177028194   -1.41799483542845
O         5.39849099149449   -1.79081243779188   -0.62390832806328
C         5.07745763830470    0.23004203827915   -2.25379573346560
C         4.85011345850579   -0.27592737876623   -3.66237317722229
O         6.41278838770189    0.48227721388360   -1.76139802331444
C         4.26285251754446    1.47873768659901   -1.92941678069758
O         3.75151185341502    2.09320528143155   -2.85188361363900
S         1.47501493559388   -0.59316809027685    0.90580021561734
C         0.96431577121119    0.22486125424323    2.39904013408471
O         0.31426615131687   -1.33246609196592    0.44750948958996
O         2.72681533480212   -1.30211756987839    1.12669866085531
H         1.08715211690494    2.90683502050043   -0.65255773059852
H         1.25787578896589    2.55898398233594    1.01892182974816
H        -0.14232186586616    1.82095098687372    0.14898151223981
H         1.90617844053793    0.59142492963380   -1.10275213167259
H         4.67617828836143    2.71391032163457   -0.26148982243358
H         5.05824981204072    0.32957260520662    1.19959688039465
H         5.58220432478033   -1.05858577544908   -3.88668418704752
H         4.92357823548850    0.48568874410631   -4.44785629711502
H         3.85711923629377   -0.71581978917722   -3.53041949180194
H         6.75182364107287   -0.31989558724377   -1.30588958416132
H         1.01508493788484   -0.53760551386147    3.17724611078965
H        -0.06740175577343    0.54877450237495    2.25852025920038
H         1.54614054651811    1.07665816025844    2.76039043823837
