30
 energy: -57.476434855987 gnorm: 0.126585895585 xtb: 6.4.1 (79825abcba525fcdf90b791dcacef51065a7a4e7)
C         0.47919528144457    1.40580967735999   -0.02405566231717
C         1.78587474203962    0.64611630523057   -0.21346617978529
N         2.91265362028729    1.49965573187306    0.18863527937590
C         3.94005897889527    1.99889723139400   -0.69227766546755
C         4.25776650081936    0.86940273166937    0.27938131097330
S         4.53233770568124   -0.59745381647770   -0.85504467242337
O         3.34169041972302   -1.23794343587404   -1.37188209300772
O         5.70201480325034   -1.32273241709353   -0.40078957375648
C         4.98513921343403    0.45589792347095   -2.25311718323114
C         4.82458243919652   -0.37859114135225   -3.50596608523587
O         6.32821776637686    0.97520302224510   -2.12802314952067
C         3.97281711940646    1.58868822148146   -2.11157524963165
O         3.09116657459649    1.85661191714684   -2.91213374587780
S         1.70214870860249   -0.72038029146949    1.04997561639186
C         1.35405738900843    0.05175388945558    2.61279113354033
O         0.56896855779701   -1.55315170256314    0.69455447147494
O         3.01681701638509   -1.33128460910488    1.17979427696886
H         0.53272374250186    2.24460264387795   -0.72037081849918
H         0.29319079040564    1.74031198058902    0.99922986315615
H        -0.32255675389916    0.72273922627390   -0.32680277166641
H         1.71402703186653    0.23238119938759   -1.21335505232478
H         4.26380991051832    3.02818362917901   -0.56342077600947
H         4.90703935493563    0.88568946892747    1.14501167120345
H         5.18881478204653   -1.38037050380070   -3.25576708397872
H         5.53965150093321    0.10829508045881   -4.17980432015725
H         3.84130340640200   -0.24325150350409   -3.96618359776288
H         6.90455797738560    0.29629943145277   -1.71228775381248
H         0.31949705876900    0.39372464861619    2.66052524766109
H         1.94948852428248    0.96506935835522    2.63336539580786
H         1.52837945132994   -0.64590221792618    3.43591922484708
