30
 energy: -57.472253694410 gnorm: 0.124593180247 xtb: 6.4.1 (79825abcba525fcdf90b791dcacef51065a7a4e7)
C         0.28203388403595    0.61981657320422   -0.12870878107916
C         1.72544860659210    0.14075506029307   -0.04224729373463
N         2.55801186051768    1.35148495645887   -0.01365827961880
C         3.20769624945115    2.01413854493319   -1.11801867753226
C         4.04440240091806    1.29867033286286   -0.06500152141408
S         4.61242281478236   -0.24203035825193   -0.96919949335483
O         3.59164037245022   -1.25076815578147   -1.15745488931994
O         6.00010855170067   -0.54515961213454   -0.68116788736223
C         4.72772926803000    0.69016911318132   -2.51415722945213
C         5.03908939653335   -0.23174522132674   -3.67385963893076
O         5.66020844004959    1.70664067059922   -2.08235349128050
C         3.31787933061050    1.25871497094665   -2.38330324978667
O         2.35782185934000    1.06357687411189   -3.11144847980182
S         2.23041417200979   -0.86698183874989    1.44102081720552
C         1.64883566003826    0.07610031573844    2.83102570388680
O         1.34816509188102   -2.01709659055032    1.38808419783069
O         3.67691835543634   -0.98665301531492    1.54925291299321
H         0.18701200219064    0.97970356816388   -1.15474285729113
H        -0.03361964885782    1.39578382833788    0.57260455388970
H        -0.34083885178204   -0.27471589848818   -0.01518085059424
H         1.80751676461630   -0.60310632125847   -0.82713686819135
H         3.05728424997837    3.09030533481462   -1.10850510851807
H         4.69790029450145    1.79154960023677    0.64291580115413
H         5.39102039333089   -1.24890200877417   -3.47295350692358
H         5.69223642879659    0.32282377346932   -4.35817835638134
H         4.08522506212665   -0.22105235907353   -4.20956770043940
H         6.41255786614957    1.16420001682595   -1.75732653557238
H         0.56285885045959    0.13477997399230    2.74887529609805
H         2.03609327116051    1.09531941227977    2.81284168179757
H         1.94944174489916   -0.45315498762546    3.73886758765201
