30
 energy: -57.475628786066 gnorm: 0.125707375098 xtb: 6.4.1 (79825abcba525fcdf90b791dcacef51065a7a4e7)
C         0.82635943339154    1.33903737170202   -0.72692401343503
C         1.92900343726021    0.42839962940579   -0.20219868241063
N         3.06614806830735    1.14266492321969    0.39493861858938
C         4.02704485665562    1.83054008086559   -0.43229568729964
C         4.44448202855824    0.58432203383049    0.33809631748393
S         4.81586116961363   -0.65955818134353   -1.01424215711328
O         3.78474607335292   -1.63804159925904   -1.28693372020257
O         6.13364353364208   -1.21012924921185   -0.76757964493134
C         4.90661021166447    0.56224177208697   -2.34396217428971
C         4.47844334594780   -0.11987872785024   -3.62582238764126
O         6.27124824442722    1.02693651983320   -2.23904252076489
C         3.87699167076234    1.58936112240543   -1.88249115623402
O         3.12084624948592    2.12258308142200   -2.67867149949565
S         1.43591506049741   -0.63432460369484    1.24627956650111
C         0.95814853071326    0.41167108366516    2.60178067871802
O         0.20567805148475   -1.37917437071970    1.05747968947716
O         2.64618734755000   -1.34637342709239    1.62921192701383
H         1.19877802294729    1.90989011963612   -1.57940584283106
H         0.52924325038925    2.04260178720270    0.05430694830383
H        -0.01995801002825    0.66524501881043   -0.90241768772632
H         2.23362617619117   -0.23353256168863   -1.00542178809429
H         4.29912379114318    2.84056205714223   -0.13788455759016
H         5.03948158448885    0.45187416629999    1.23228282501517
H         5.30714596194565   -0.61704630591551   -4.14050967557614
H         4.01442755334555    0.51841711507177   -4.38720775909891
H         3.72639900557521   -0.85412980659392   -3.32208023324104
H         6.77040465874132    0.20867114267429   -2.02178992525104
H         1.51958213292006   -0.06495433451923    3.40624207860910
H        -0.11435893350156    0.46708288835576    2.79089427933295
H         1.48369816351591    1.35166850202320    2.41508703296754
