30
 energy: -57.475403277357 gnorm: 0.127430860195 xtb: 6.4.1 (79825abcba525fcdf90b791dcacef51065a7a4e7)
C         1.33979752037349    2.29991456656122   -0.36056773241559
C         1.99705892869705    0.95102657438632   -0.09802210830416
N         3.35524695174171    1.18908826727369    0.41040460005564
C         4.61738894456197    1.49929083814626   -0.21536166664119
C         4.39563034800662    0.12497548554188    0.40342545324891
S         4.50959178818616   -1.05401712779571   -1.04949196422854
O         3.19495625238265   -1.57958502864266   -1.35032517694652
O         5.60245198196880   -1.99412137027042   -0.89988627423124
C         5.14452096894251    0.15723806237518   -2.23224791420156
C         4.68907020301220   -0.16987293872170   -3.63842850035211
O         6.57078556505826    0.11309937445844   -2.00201459664670
C         4.50862817171784    1.43279604396932   -1.68760473961628
O         3.86219881151185    2.20300817495222   -2.37962139946722
S         1.18974874723407   -0.26695123037791    1.05756800204047
C         0.42302736215612    0.63112106115394    2.38623484450297
O         0.14131413108782   -0.85023415338105    0.24240203435771
O         2.18800802003250   -1.16540840291108    1.61851618431930
H         1.99165082630192    2.73837527368222   -1.11828351601722
H         1.22177742996508    2.96873826742283    0.49520609489663
H         0.34804289407454    2.10895017543370   -0.78601190277290
H         2.06129671161138    0.46774408367266   -1.06674711536274
H         5.14377822434459    2.31348584767132    0.27540310038857
H         4.81717495781084   -0.28900321044904    1.31009970239703
H         4.31417275528977    0.75718987541658   -4.08433552335571
H         3.85858591401795   -0.85689007574098   -3.43657899674535
H         5.47100206787988   -0.58761799501020   -4.27954179719616
H         6.86554918488861   -0.76572769805388   -1.67537805755360
H        -0.34017076615684    1.32155628459618    2.02517329611565
H         1.16934541512758    1.17838189642013    2.96296842656296
H        -0.11665401985348   -0.12141932900092    2.96681993507506
