30
 energy: -57.471821519274 gnorm: 0.128349007753 xtb: 6.4.1 (79825abcba525fcdf90b791dcacef51065a7a4e7)
C         0.35304806651985    1.19688599459170   -0.18307322593951
C         1.67339272900003    0.43731045692735   -0.19558557251968
N         2.72884816754586    1.42187185146343    0.08099794607836
C         3.73547107714544    1.96822157184820   -0.79594205600671
C         4.08614087514700    0.81383934028109    0.13424579066045
S         4.49366117791141   -0.65299376403568   -0.95951271106925
O         3.38438721667318   -1.50199625503298   -1.33858378357831
O         5.70269855211287   -1.31631168501993   -0.51368851225976
C         4.94824392344745    0.47555065300719   -2.29702079285514
C         4.87368777160477   -0.17367418607313   -3.66257172014870
O         6.17927223812164    0.97975215393184   -1.73174525202827
C         3.88045222442070    1.56190863186377   -2.20932113397754
O         3.38474924365849    2.16174349593052   -3.14977920667165
S         1.86856031849078   -0.74523564585778    1.23063408173400
C         1.33118652559615    0.36964193240321    2.50657627944012
O         0.91761328537971   -1.82959802827102    1.07640168810029
O         3.26564826153541   -1.02688686534075    1.52597727047424
H         0.02374771264614    1.57578806841411   -1.15224206024231
H         0.32948028533870    1.96730771083888    0.59119911995967
H        -0.50206926902720    0.56413488143072    0.08045618590511
H         1.94778208938928   -0.14867912492070   -1.06589775163387
H         4.06539434596392    2.98600037011018   -0.60587311910823
H         4.54091142384938    0.96902821692176    1.10390373784811
H         5.70538763529834   -0.85419061818628   -3.87233194840420
H         5.01642020306188    0.56543857651326   -4.45992967000168
H         3.90354857865375   -0.67486969727949   -3.73030383105611
H         6.56169025953543    0.17477597121979   -1.31739775790720
H         1.39158418868322   -0.06469815434304    3.50519454193224
H         0.29617299231418    0.62569554772962    2.27790574139596
H         2.01322825037290    1.22373083097724    2.50475434085223
