30
 energy: -57.473417478889 gnorm: 0.127629260612 xtb: 6.4.1 (79825abcba525fcdf90b791dcacef51065a7a4e7)
C         0.49083292982251    1.39846464886389   -0.17376778379217
C         1.74464245429952    0.53354824523849   -0.19117093785832
N         2.91506492015345    1.33839535517439    0.18589427140370
C         3.87243500155476    1.92916737992849   -0.71701347506275
C         4.31405613559260    0.83441198846012    0.24594989734648
S         4.64951497750203   -0.60001071109240   -0.91330791625729
O         3.48409845304907   -1.37317318639632   -1.28615231171900
O         5.80026486123931   -1.33122679589996   -0.42176036274966
C         4.98569582022142    0.52294310622630   -2.28994984668145
C         4.99478645398379   -0.21358610684976   -3.61253176292136
O         6.17823152129087    1.21153590747783   -1.85076326128274
C         3.80010202383503    1.46804988334238   -2.11911502003353
O         2.95760094189537    1.73290072331807   -2.96174818642876
S         1.63529846560365   -0.77429190161578    1.13102655463015
C         1.41943854164772    0.26564104254456    2.55640196661594
O         0.40872698967794   -1.47018426955513    0.79163608031087
O         2.89166422339834   -1.50055113728658    1.24284039544849
H         0.44892616423060    1.90247667297410   -1.14098515142968
H         0.58283950511726    2.26082855938254    0.49066129719410
H        -0.41876426061268    0.81247364234531    0.00028643568019
H         1.82435654917851   -0.06973409693660   -1.08884162804981
H         4.19727814453440    2.96094801101922   -0.61330752878696
H         4.84812306316002    0.70011855679082    1.17754757017194
H         5.16446072824169    0.50748756453074   -4.41881337135400
H         3.96066518732330   -0.56065341295841   -3.72468083278323
H         5.84181744333682   -0.90333579125245   -3.55138841543470
H         6.85670653838088    0.62677257578623   -1.44624188868818
H         2.04247429231631    1.15837652146219    2.49016420672220
H         1.79345790800755   -0.35820671374894    3.36882437736750
H         0.35126083132133    0.49488699776478    2.58948899702460
