30
 energy: -57.467266643250 gnorm: 0.134387165146 xtb: 6.4.1 (79825abcba525fcdf90b791dcacef51065a7a4e7)
C         0.47829378046063    1.36819575445958   -0.18141072105234
C         1.68130270903649    0.43385753952808   -0.19566518906574
N         2.88540170278396    1.16711772245105    0.21945035560249
C         3.88390369642405    1.81703376717373   -0.59382349171555
C         4.25722434755406    0.59022860950513    0.22861061034702
S         4.69560793753608   -0.65662187818621   -1.10073641003656
O         3.65928873043251   -1.58430468061701   -1.50128097487684
O         5.98366296853245   -1.24315979473791   -0.78863263960059
C         5.05149187136321    0.55734521200070   -2.39256316549938
C         4.88830102309193   -0.04175534891753   -3.77322536682459
O         6.27629434891438    1.20790336451200   -1.98535402544392
C         3.89754872161061    1.48921813268316   -2.03469159025862
O         2.97598987561009    1.86921021679613   -2.73919141943865
S         1.63922065969420   -0.72393410281233    1.26322335994423
C         1.22364260134262    0.47719273462660    2.50593824972180
O         0.49233261842384   -1.61068338496820    1.21575549380295
O         2.90057753616916   -1.33235306774755    1.65972672916267
H         0.16259510018747    1.63113986108288   -1.19259244348008
H         0.59007513276839    2.35557421263938    0.27267235411377
H        -0.42854249422136    0.86287450452810    0.16979546670666
H         1.88912167764417   -0.29831684323131   -0.96822492261948
H         4.21709813361248    2.80008299167271   -0.27219492558452
H         4.71088732879083    0.57658218967185    1.21102603578177
H         3.85472597511724   -0.36923523092372   -3.92588897654788
H         5.57134322977686   -0.85271001298206   -4.05294987278994
H         5.07890456480329    0.76002873780138   -4.49278578881221
H         6.77605047996989    0.57664661486518   -1.42172935500159
H         0.13439773228048    0.48353475635742    2.56110179631867
H         1.50742306635508    1.45469330700165    2.11469924134713
H         1.64385031937457    0.19428925234344    3.47446453945631
