30
 energy: -57.465515068453 gnorm: 0.143295262369 xtb: 6.4.1 (79825abcba525fcdf90b791dcacef51065a7a4e7)
C         0.30031594627632    1.22137265054652   -0.07505673740188
C         1.63103949235343    0.48536129001133   -0.16384683514174
N         2.83505714560384    1.30361777362828    0.03775580706781
C         3.82803660995415    1.94080199457017   -0.79218365199047
C         4.24376390944912    0.84590954258567    0.18208447939218
S         4.51931417428555   -0.63896049090402   -0.92841667576551
O         3.45150331347804   -1.54720860325255   -1.28876950711515
O         5.82333250699074   -1.18255715802513   -0.60505912074303
C         4.89138731322581    0.37232783488493   -2.38032691413055
C         5.11909864060099   -0.15470745809741   -3.78109891596449
O         6.11340637169934    1.00264289211848   -1.93472770984560
C         3.95272274259038    1.56389024794480   -2.21560947222382
O         3.45034378616107    2.27979003663735   -3.06713021626286
S         1.66595800158568   -0.70189440231339    1.27135795605177
C         1.37065146115418    0.23566913577450    2.75241155392117
O         0.56704903102323   -1.60714791290998    0.99414896798040
O         3.00883275286781   -1.25381736563182    1.37372090848731
H         0.15263251037330    1.90363672924360   -0.91410325969784
H         0.36398646955125    1.92218087411122    0.76065650700981
H        -0.56206978238570    0.57486601112068    0.12335546740899
H         1.63413542868139   -0.08046966403911   -1.08901835307006
H         3.86723317835539    2.97795780742268   -0.47028200932473
H         4.81361493918213    0.75439309001056    1.09752479661450
H         4.19833214896808   -0.53218689767262   -4.23774426098388
H         5.75725373179886   -1.04218409044494   -3.69401717669933
H         5.53745116902148    0.57009549500490   -4.48579493101477
H         6.81792594284764    0.32550773740868   -1.82958875480336
H         0.29411824917567    0.19365377995316    2.92226023994680
H         1.94003455379279    1.15180273085856    2.59238401665025
H         1.83732197551109   -0.33804111729859    3.55722659907858
