30
 energy: -57.477156187322 gnorm: 0.124088436388 xtb: 6.4.1 (79825abcba525fcdf90b791dcacef51065a7a4e7)
C         0.51042251722625    1.30072366994149   -0.17990668883861
C         1.74336182859131    0.40756284514350   -0.12944852961106
N         2.95070060772324    1.19903775236958    0.14577147407075
C         3.93767531037812    1.90037303298499   -0.63833412819282
C         4.34687214415934    0.68522851611530    0.18434394590690
S         4.72257373808191   -0.66847554570947   -1.05674962548089
O         3.50887972557970   -1.41313761434543   -1.31639186501935
O         5.95108487341899   -1.37927157845279   -0.76340570225667
C         5.00281046433462    0.49940394565792   -2.40830824714713
C         4.84894912269291   -0.07566150070299   -3.80021602574963
O         6.31190154041019    1.04854180449291   -2.13643609655248
C         4.00268405482964    1.60538197336019   -2.08488315654530
O         3.41071304161528    2.26561031177095   -2.92372378827172
S         1.56890140198656   -0.70998843209436    1.35083891153086
C         0.70249649338931    0.29721491734739    2.53178558505196
O         0.77541857822052   -1.88272372962350    1.03618577613376
O         2.88510933948602   -0.98619636686914    1.90735986259430
H         0.35655817739934    1.58138280602673   -1.22338641683192
H         0.80104154713449    2.16328396652252    0.42435570196127
H        -0.39955597127436    0.78329141414245    0.14451646661247
H         1.70752610196685   -0.27900750582236   -0.96816993447494
H         4.10125308981655    2.91046482691992   -0.27253909873978
H         4.85192870011144    0.64202220269102    1.14047539419260
H         4.04203283102604    0.31472968807136   -4.42895082625068
H         4.59835540215071   -1.14281459349937   -3.82897340990903
H         5.80459311077313    0.06186131662939   -4.31479029247886
H         6.88153895789450    0.26741099779584   -1.95962569145300
H         1.19225234298387    1.27092288498176    2.57140407280732
H         0.83971597870465   -0.11210889786908    3.53315040882188
H        -0.37017173617795    0.41387034391571    2.35735376050492
