30
 energy: -57.471373280803 gnorm: 0.147948867421 xtb: 6.4.1 (79825abcba525fcdf90b791dcacef51065a7a4e7)
C         0.82803629619996    1.85634846412025   -0.21094142985278
C         1.83100588098218    0.70985823258741   -0.20512934757421
N         3.09050318974854    1.21150395272277    0.36220091916578
C         4.18386256354553    1.65337446630669   -0.46853826104311
C         4.30650098174794    0.35464737470294    0.31828144579388
S         4.60279768562918   -0.82559856187951   -1.10762437293961
O         3.38909145821543   -1.50961136755639   -1.50009414523513
O         5.77237924279572   -1.58273715279495   -0.70844847123057
C         5.17374426980683    0.38147913598519   -2.32670979663351
C         5.16427904553141   -0.14410219374539   -3.74637719308520
O         6.49902989925855    0.71454964552252   -1.85568077947640
C         4.23927357016323    1.52381022978094   -1.93955581030198
O         3.41975248851824    2.01042381749023   -2.70216788221571
S         1.21004741632714   -0.42423609620792    1.13608235894234
C         1.42700193217069    0.20163995925402    2.78561592903416
O        -0.21424572003172   -0.49835333734580    0.87183746794158
O         1.84089817916007   -1.73333467745201    1.21792334053062
H         1.10946662035387    2.49671832977015   -1.04880605942073
H         0.89011424157555    2.40542872637271    0.73153398964841
H        -0.15499304169802    1.42720450545443   -0.43574391877895
H         1.94102497155442    0.25824504815319   -1.18495482304086
H         4.61352022868327    2.58117658634523   -0.10053467847995
H         4.96603516014307    0.31510414922378    1.17536210636178
H         4.24532907133201   -0.71174764189748   -3.92564297818194
H         5.94787991579905   -0.89337053527756   -3.91071389699790
H         5.31338130376718    0.54646623876081   -4.58174441213394
H         6.98162766826234   -0.13698244037350   -1.76676202976625
H         2.48450286630373    0.39472832981859    2.96986108807628
H         1.00501465561868   -0.66330718402063    3.29835354303425
H         0.77507996249162    1.03811934498473    3.05010045328868
