30
 energy: -57.465392363325 gnorm: 0.137352939615 xtb: 6.4.1 (79825abcba525fcdf90b791dcacef51065a7a4e7)
C         0.43690360249455    1.48700972896146   -0.42816198194590
C         1.65195252181223    0.57813265373722   -0.29392276795668
N         2.76847743117757    1.37712281892667    0.23032201484336
C         3.79720902647496    1.84383738109888   -0.66672887961285
C         4.06502066318814    0.64656058029633    0.23638920211461
S         4.61182501285408   -0.71325462705288   -0.93232267027075
O         3.61570003086624   -1.58638908599011   -1.51572652795492
O         5.71208178907049   -1.35002782505777   -0.23627944147173
C         4.98840344921966    0.42855591699331   -2.28274601172672
C         5.10193661496640   -0.24687633147580   -3.63281354587613
O         6.10109959355371    1.22566566109584   -1.81830048481353
C         3.83672210722553    1.40828477722059   -2.07828220455270
O         3.13708834356914    1.93409317784772   -2.92917751089840
S         1.58659517547207   -0.63399031904943    1.11926317315191
C         1.74701329998864    0.20848183983772    2.67626599469298
O         0.28509888921738   -1.27345625334077    1.15273558543371
O         2.78669283599564   -1.45669332126831    1.15580224111784
H         0.62314932480192    2.35586946589255   -1.06195139724068
H         0.24854978310322    1.83503636570883    0.59017147270269
H        -0.47442126686381    1.00641855255168   -0.80174796153858
H         1.89984186021969    0.06095984753549   -1.21435731886948
H         4.26600895814727    2.77909995718032   -0.37285855824163
H         4.69174359570994    0.76393057459100    1.11079130210616
H         5.98079103761349   -0.87943154036432   -3.47059319454621
H         5.21190167677004    0.54903904743334   -4.37904830622296
H         4.24282431421036   -0.81586673045102   -4.00041470628975
H         6.95595539422009    0.74613657513617   -1.89032450548562
H         2.75964018536287    0.60283697077267    2.76904769878279
H         1.63108314277897   -0.54353014558365    3.45738369096212
H         0.98414671315850    0.97889172793769    2.81466850733079
