30
 energy: -57.469462895399 gnorm: 0.124250664858 xtb: 6.4.1 (79825abcba525fcdf90b791dcacef51065a7a4e7)
C         0.89225611776268    1.78868754708602   -0.27954761364679
C         1.88310517738321    0.63240308810727   -0.23897652403839
N         3.15999559945994    1.10149747269148    0.31721303061201
C         4.33939619429639    1.71924910222200   -0.23795270542063
C         4.44229056094117    0.35497028018810    0.43210214981856
S         4.60797134437869   -0.86658123454084   -0.98010938521702
O         3.29943929439469   -1.46052326042800   -1.15321509449265
O         5.76275987788451   -1.73386383472970   -0.85843111869554
C         4.95022696199477    0.35672013084486   -2.26680309384771
C         4.45059430650177   -0.03810514540419   -3.64021528765568
O         6.38085241370635    0.55849221646870   -2.30905403505293
C         4.38348934339959    1.66100071413999   -1.71389744647963
O         4.12580046307781    2.62842464610334   -2.41223269485979
S         1.32871465636635   -0.59207111494850    1.05095459127364
C         0.91889933261766    0.47677983156204    2.41086640943218
O         0.08774607157651   -1.22998277397977    0.65472820121643
O         2.46261202553756   -1.44292070574855    1.38071428729460
H         0.70800142697400    2.23495190714218   -1.25842046427353
H         1.15416043263958    2.56647741125841    0.44159854264173
H        -0.10503896777460    1.40156915294698   -0.04166269164055
H         2.00012401966309    0.04947676312327   -1.14596060479481
H         4.67588134191482    2.66618016758495    0.17550637229515
H         4.99001396527486    0.11024903576854    1.33279456364240
H         4.95559355761063    0.73026739526177   -4.23469491407234
H         3.35634882243558   -0.05862531673217   -3.70837441524946
H         4.72802822284590   -1.08411136207895   -3.80101345332460
H         6.80810471452746   -0.31726869043354   -2.18094334336222
H         1.42518694734268    0.05557416120750    3.28023184319687
H        -0.16982324340915    0.43702057703192    2.45786680525435
H         1.38905881096958    1.40532091999279    2.07707966227968
