30
 energy: -57.470859863555 gnorm: 0.123837559199 xtb: 6.4.1 (79825abcba525fcdf90b791dcacef51065a7a4e7)
C         1.17325542594580    2.06824228880591   -0.33139906173714
C         2.05182227665222    0.83266712384800   -0.18342633686719
N         3.32084732155576    1.15400864747473    0.48452620174119
C         4.46556187987929    1.69933612669571   -0.20326615919684
C         4.55959462357354    0.32967138859756    0.45703210947170
S         4.55097501527060   -0.93102082234443   -0.93025318321032
O         3.27211561991517   -1.53001762509532   -1.24760208389030
O         5.75282207757224   -1.73012234020217   -0.79788374693929
C         4.84127700435629    0.29721826962701   -2.22498841699447
C         4.27147632975255   -0.19414116278195   -3.53863751148014
O         6.27054238902049    0.48526144816282   -2.32999567078325
C         4.30162464996943    1.61175638252315   -1.66928264482649
O         3.73674222957137    2.44165617565978   -2.36365929358163
S         1.41790432876673   -0.47992617524040    0.97668359772211
C         0.53989380837168    0.25112541328485    2.33845163957589
O         0.49302679593586   -1.24299326359787    0.16043618772352
O         2.55757532937845   -1.09376711227819    1.64208501201609
H         1.72192304875071    2.86707636051137   -0.83351627284014
H         1.04755065821268    2.30057353517577    0.72870622887561
H         0.20013429705002    1.92665208161039   -0.81517055114125
H         2.12119331100073    0.21801495797567   -1.07421644024133
H         4.92951153272767    2.53333230945284    0.31639740394777
H         5.15409673656123    0.10535200986011    1.33303685007744
H         4.68869844039399   -1.14982786855532   -3.87242675963607
H         4.60204837379943    0.41879484784400   -4.38567440201668
H         3.17855631848147   -0.23995088305694   -3.51909392373532
H         6.56471514001931   -0.45230335161250   -2.31132262492204
H         0.74072777211587   -0.40412506974337    3.18689147035651
H        -0.50247512429250    0.41030319124974    2.06053775666607
H         0.96058381815588    1.22297396549991    2.60897407454928
