30
 energy: -57.475606099069 gnorm: 0.132089358301 xtb: 6.4.1 (79825abcba525fcdf90b791dcacef51065a7a4e7)
C         0.78324332462273    2.01244489122014   -0.01234896304748
C         1.82153817777775    0.91145633077048   -0.18610052357779
N         3.11432697420767    1.48426249283251    0.21444378634366
C         4.22839522303968    1.83866023289728   -0.63058049467524
C         4.34376074185593    0.65204219228643    0.31781073127609
S         4.28098261367657   -0.80213910373855   -0.86345778180627
O         2.96439489482495   -1.08177270114665   -1.39580228991759
O         5.19157633547426   -1.89492763652880   -0.58569247738286
C         5.01781335796355    0.17843728496443   -2.19189153512338
C         5.07031746415827   -0.42210124426021   -3.58055191098491
O         6.39833689005669    0.27143341186236   -1.77392885999055
C         4.24706852856064    1.48924814345186   -2.06630763416530
O         3.88555338431345    2.22504458681842   -2.97068319338862
S         1.53556606493970   -0.49606607629502    1.00036853902702
C         1.12155607545107    0.12255057893250    2.61457430639976
O         0.37926877361464   -1.12552498784416    0.39152724701267
O         2.76378928648365   -1.24174232545249    1.23241244804023
H         0.96843587090567    2.85415370585423   -0.68206809932166
H         0.67198309038604    2.30586456697848    1.03413504366844
H        -0.20403179622485    1.58666681656309   -0.22459467510376
H         1.84772580262837    0.48713045573514   -1.18378704284898
H         4.69987841641971    2.78810022436777   -0.39159009303284
H         4.90358200640868    0.53686032872667    1.23676095953134
H         4.02709257927184   -0.58854430450099   -3.86831080019041
H         5.62607090533799   -1.36545272846903   -3.52000430204922
H         5.66885540895797    0.19501503901126   -4.25721612213892
H         6.64427292293604   -0.67294298445191   -1.65738387432595
H         0.48095601449154   -0.60373450739245    3.11625065478210
H         0.66518071232453    1.11117125047464    2.67337379012075
H         2.06237481683087    0.11209297241708    3.17081419626380
