30
 energy: -57.473544746702 gnorm: 0.143536265954 xtb: 6.4.1 (79825abcba525fcdf90b791dcacef51065a7a4e7)
C         0.43951382635112    1.45087096469470    0.02413627789699
C         1.67915382006513    0.57258791160461   -0.08691855988579
N         2.80711583421791    1.50058233452417    0.07548084483760
C         3.67445257804876    2.03968223296228   -0.94329788696501
C         4.22779523941463    1.05739017327383    0.08126625276350
S         4.64350380725732   -0.47162111403238   -0.92037763685810
O         3.52747161812700   -1.35155926255764   -1.19454885479733
O         5.88330829942160   -1.02923089433564   -0.41790632341874
C         4.88933691681612    0.51695898774148   -2.41418528868192
C         5.05001069642394   -0.41263401414959   -3.59817077510028
O         6.04145689522888    1.36562039298483   -2.21027433971372
C         3.63313810853703    1.36905715459632   -2.25946849768701
O         2.68867107470302    1.32827325532340   -3.03167536343722
S         1.83784355201214   -0.73731746659880    1.22821401366228
C         1.16344333781895   -0.17032134824750    2.77205689731731
O         1.04307974391454   -1.87949864747771    0.81869929569780
O         3.25704500390748   -1.01905056125016    1.38602221647841
H         0.10835070303788    1.88262936282488   -0.92201878391223
H         0.61958625602670    2.16989718404006    0.82674324230709
H        -0.36884057214792    0.79722853332153    0.37106871276064
H         1.77251345216851    0.16741312863548   -1.08853425331143
H         3.73886462357164    3.11230127748879   -0.78146895700485
H         4.86722319951411    1.30613873402413    0.91816068672707
H         4.72197682521120    0.15308079292228   -4.47634340479712
H         4.57397239644147   -1.39082636052422   -3.46044933983236
H         6.11803577364147   -0.64715789794094   -3.56245501503300
H         6.78767622835664    0.76530049684322   -1.98962354543644
H         1.43294669654584   -0.97094215535781    3.46192056937203
H         0.08430150877255   -0.18172595067741    2.61575740544218
H         1.55562428660989    0.84058448934211    2.90959079047387
