30
 energy: -57.465638689168 gnorm: 0.138491828360 xtb: 6.4.1 (79825abcba525fcdf90b791dcacef51065a7a4e7)
C         0.67252430933633    1.51531869587844   -0.44919023871749
C         1.83281239989769    0.57115276918446   -0.16160743425552
N         3.01801885833832    1.31186735026105    0.29278568231887
C         3.82952956873453    1.98750921816008   -0.68995042185763
C         4.41740234405749    0.83686746509602    0.11704810611831
S         4.67486993043253   -0.68606310626328   -0.94520069594952
O         3.49538782999822   -1.49900238088266   -1.15242173818566
O         5.93420020536587   -1.33334939282418   -0.63596132178600
C         4.98529063870901    0.45684779741938   -2.31142889160036
C         5.05773374965784   -0.11577563193023   -3.71094139572106
O         6.15926652618134    1.14830362253592   -1.82887759092411
C         3.86133604169508    1.46008593072580   -2.07000947583336
O         2.92083596387053    1.38478218281245   -2.84446005065410
S         1.50043779044188   -0.65904434995519    1.19734450438802
C         1.10189480382870    0.32969712028080    2.61977372623969
O         0.40962678848109   -1.56155473654539    0.88185119950713
O         2.79209194143376   -1.25482544300904    1.50570171726678
H         0.79022932780690    2.16961214023653   -1.31483412941197
H         0.51642529606044    2.19797584826442    0.38938893604344
H        -0.15222952652099    0.81533510140363   -0.62483605824609
H         2.11850101343326   -0.06833107711868   -0.98959236818041
H         4.13429122776197    3.02365430777632   -0.57006384672343
H         5.04160664624147    0.80863074337233    1.00062488638976
H         4.05823894834534   -0.36661904221302   -4.08096079632651
H         5.49157059028339   -1.11895030649090   -3.62225040881362
H         5.57983610913135    0.62322881580526   -4.32595048960541
H         6.83569156180811    0.43682200246774   -1.78243279203265
H         0.35936520661541    1.09682055392168    2.39681844392738
H         2.07682271035121    0.68405565327810    2.95600622061095
H         0.78730073044420   -0.28120795772388    3.46976057045744
