30
 energy: -57.467506403577 gnorm: 0.128636877163 xtb: 6.4.1 (79825abcba525fcdf90b791dcacef51065a7a4e7)
C         0.61587823251267    1.08936678138021   -0.35261434036310
C         1.84724799758386    0.23919509879388   -0.06738077838365
N         3.01170728912908    1.07133143172822    0.26642977422615
C         3.91209005224060    1.81790320194809   -0.57781717654920
C         4.42178109530445    0.60229431631458    0.18594137746635
S         4.81878266160671   -0.63232874827651   -1.16760043746884
O         3.66240847414224   -1.45036165779550   -1.46527430397192
O         6.10238674036693   -1.30256511379519   -1.10706090561297
C         5.03939637225356    0.61998173513166   -2.45299293874132
C         4.75317115683244   -0.00386231191339   -3.80231668784599
O         6.31996740380569    1.20199971008787   -2.12045841063960
C         3.95558320754926    1.61154393024432   -2.04044302214843
O         3.28575247867965    2.27518923627639   -2.81561164704956
S         1.43357154472501   -0.71619336835146    1.47751819257109
C         0.81281808223482    0.47680165860317    2.63992049210481
O         0.38089652639900   -1.66228577945412    1.16016330636482
O         2.73071199016764   -1.21238072982723    1.91298862341037
H         0.59787188867894    1.53961290712182   -1.34672094116157
H         0.68697402367718    1.88003838263060    0.39797644973079
H        -0.14936399784618    0.31956904577947   -0.20140867553367
H         2.02117183600352   -0.68078902563012   -0.61464332615357
H         3.92435523907793    2.88961852475944   -0.39858241152405
H         5.02164059163431    0.70371452968555    1.08093797945958
H         3.82060911327575   -0.57031260669439   -3.71127422938619
H         5.59216684771583   -0.69311223515617   -3.95548553840407
H         4.76077663186248    0.66324886456440   -4.66941499113278
H         6.81692019359964    0.41493061062307   -1.80506310141063
H        -0.22438617167459    0.73463565073890    2.42251168187571
H         1.34812013448389    1.42019133461282    2.52778524011491
H         0.94528007744010    0.17552486667136    3.68219598092098
