30
 energy: -57.468896386788 gnorm: 0.133622096361 xtb: 6.4.1 (79825abcba525fcdf90b791dcacef51065a7a4e7)
C         0.31971031343312    1.16337607012443   -0.19436441007820
C         1.70747201211863    0.53580659048953   -0.16798938746070
N         2.76845547753971    1.50289104783058    0.14650590301973
C         3.62406653242327    2.06139368740830   -0.87173589144642
C         4.17728798064704    1.02570520357765    0.09888909240446
S         4.45797212135918   -0.56590049998255   -0.85084103701548
O         3.30845600436283   -1.30329079654673   -1.33027517882313
O         5.58402064266554   -1.33947079587425   -0.36697639349530
C         4.87970679379670    0.47037676865266   -2.27121250999062
C         4.90073738304135   -0.28739387771421   -3.58160260753767
O         6.02843640280881    1.30285020218543   -1.99445527121713
C         3.74534145424398    1.48992905349558   -2.22911222444933
O         3.04382434003664    1.68366734153859   -3.20907343114625
S         2.01251571780875   -0.69097528968052    1.20042675802124
C         1.35675588638780   -0.02307424087842    2.71159793683988
O         1.24011242422128   -1.89094647754336    0.94082713013992
O         3.43730685277959   -0.81912175411493    1.46867744913223
H         0.14025762344563    1.64393899177512   -1.15776969273665
H         0.20473182762507    1.90829074416266    0.59651155828411
H        -0.42057188702181    0.35609143771870   -0.15801663891979
H         1.83622732094900    0.02695853638857   -1.11699537138262
H         3.90195828836105    3.11077378226326   -0.92099730152893
H         4.80801066386930    1.19443739824947    0.96193868549041
H         3.92168025212575   -0.76706247892793   -3.68255704514353
H         5.48417211145944   -1.21317263257914   -3.51105093999839
H         5.11570979092573    0.31052698348583   -4.47223841452222
H         6.61851243390066    0.75611158582888   -1.42983043410682
H         1.56998474569704   -0.83223030522901    3.41112459108607
H         0.30923096945235    0.18283126602691    2.48933423388792
H         2.07771045564844    0.78849971635847    2.83897258700925
