30
 energy: -57.475417087372 gnorm: 0.131453852478 xtb: 6.4.1 (79825abcba525fcdf90b791dcacef51065a7a4e7)
C         0.99600705526974    2.37570323424492    0.16372723621274
C         1.92309404347809    1.18852695363700   -0.06330539923543
N         3.30068274596051    1.43653384442872    0.38456454530906
C         4.44563974129666    1.64616138804440   -0.46745752668137
C         4.31481087654393    0.34920602729355    0.32096372329100
S         4.10838408357352   -0.91097916802607   -1.05137037931201
O         2.84078571373736   -0.95412502404578   -1.74873804039225
O         4.80384997794595   -2.14656026408639   -0.75105752476549
C         5.24307388211565    0.03699749924436   -2.09204570603619
C         5.30429034034131   -0.57878087984636   -3.47365722092109
O         6.45704983884474   -0.04874073223813   -1.31223955561468
C         4.53776221906038    1.37873072421201   -1.91788650181587
O         4.21705200770291    2.04945961423992   -2.88600450936169
S         1.29497758851159   -0.26734943228509    0.91470373965874
C         1.05518521685416    0.26186455346899    2.59463923653020
O         0.16632738770638   -0.86738111601244    0.22910883881064
O         2.46291594269569   -1.13581094162939    0.92491819421890
H         1.00082328474633    3.14052634974604   -0.61493580623148
H         1.31772055409717    2.91520022776266    1.05762104458929
H        -0.02273092255181    1.97171753076157    0.16770961140824
H         1.79782169645898    0.75712381575586   -1.05037925886859
H         5.16925814534265    2.43575935342159   -0.28371706841759
H         4.77547416607666   -0.00459195542117    1.23406424995261
H         4.92213914146161   -1.60415929165078   -3.51088899526785
H         6.29824857967246   -0.54979276267676   -3.93587646625464
H         4.68712302264724    0.09586223245574   -4.07441990792962
H         6.79620202482020   -0.97095507430197   -1.29197762229058
H         0.31001977645004    1.05803894003203    2.57534064284282
H         1.99339296385236    0.67849423828784    2.96246067744500
H         0.65448043044556   -0.57470914106307    3.17276743033091
