30
 energy: -57.477852442964 gnorm: 0.131104965480 xtb: 6.4.1 (79825abcba525fcdf90b791dcacef51065a7a4e7)
C         0.40825929777038    1.46307566512299    0.01755724350620
C         1.66493843431345    0.61906864642869   -0.15224050129835
N         2.86366849927479    1.41257806270100    0.15310328248971
C         3.79354959327381    1.85514027557709   -0.85698150893455
C         4.21513025904699    0.78944686914421    0.14670387906195
S         4.58817097106026   -0.69321559559994   -0.93797693704551
O         3.45639099697900   -1.41639308091220   -1.47749268473812
O         5.81776644845539   -1.29744023482066   -0.46518861113525
C         4.99933776393270    0.40551874276643   -2.31380779966049
C         5.17545013939625   -0.16612817487680   -3.70448571999619
O         6.08799183020352    1.25833822694811   -1.89342993165747
C         3.79841219866771    1.34407286395925   -2.24353718166131
O         2.93186876712022    1.56243181550369   -3.07504577081579
S         1.69613943595747   -0.69353459687291    1.16939008121026
C         1.43534161411250    0.25763162479429    2.64824721258967
O         0.56395105263929   -1.58598138019088    1.00933424323263
O         3.02860668867216   -1.26527539376347    1.29609134736005
H         0.28965043480526    2.05461144996971   -0.89200918460219
H         0.41836792776243    2.10180083857728    0.90385893969568
H        -0.44934165781600    0.78909973767684    0.12397355164954
H         1.61858376244160    0.14677478810456   -1.12738476983702
H         4.13100154966829    2.86250499811793   -0.62852644388964
H         4.77340223611374    1.01450766490187    1.04604609345005
H         5.31467867828337   -1.24809185307970   -3.61069529330201
H         6.15756155834111    0.16066240814615   -4.06656996261134
H         4.39812568169796    0.04192988205178   -4.44572331052412
H         6.58365361072990    0.76857592447262   -1.20034528296505
H         1.98531414610752   -0.20195409842527    3.47034744969615
H         0.39589149923232    0.16302027831371    2.96399843534991
H         1.79185153896113    1.28639813943459    2.55237118736410
