30
 energy: -57.474252005011 gnorm: 0.125016346808 xtb: 6.4.1 (79825abcba525fcdf90b791dcacef51065a7a4e7)
C         0.40782430605594    1.33758008008688   -0.12488194954901
C         1.72491564863776    0.57238574514663   -0.11185697572870
N         2.86922185097193    1.45373293937015    0.15950249346075
C         3.90357354725584    1.91890749601676   -0.73186783232802
C         4.17371796041799    0.73818456615480    0.19210881891836
S         4.68575945421846   -0.63792567894158   -0.97327253171638
O         3.58251944983620   -1.43646958587392   -1.46335208766449
O         5.93298072430414   -1.30453932394861   -0.65611858917456
C         4.95259134745556    0.46793120033675   -2.37864335151752
C         4.89755563976522   -0.22301832335234   -3.72450392069726
O         6.19258852047119    1.14838531487520   -2.08102697208144
C         3.85917099291492    1.50735825205091   -2.15046064237490
O         3.08832016981827    1.89219617841856   -3.01514181836337
S         1.73613048833215   -0.67004788985884    1.27625004534670
C         1.06472422512254    0.16405944557304    2.69513329655420
O         0.71031295798597   -1.61613620325966    0.88059241128682
O         3.04062375994831   -1.21896334224549    1.61595411701097
H         0.19790740297922    1.61148827215882   -1.16035426933273
H         0.45278545232917    2.17230753165862    0.57854629741935
H        -0.41352329747609    0.72681604542072    0.26678472245328
H         1.92649729656004   -0.12459737829619   -0.91789419156600
H         4.21527229117900    2.95417190737505   -0.62268638625411
H         4.65849986306779    0.85512326949603    1.15255044466989
H         3.85547037674506   -0.18628843454640   -4.05847375620117
H         5.14715554089437   -1.28532590268900   -3.61660387713562
H         5.44561806657169    0.31737848009212   -4.50203430875568
H         6.79862027798790    0.57943269063878   -1.55668694487335
H        -0.01748462401328    0.28487413280372    2.63377010424341
H         1.57374847437765    1.12120904154114    2.81288578204540
H         1.32327819538323   -0.44394995224654    3.56583789473612
