30
 energy: -57.469621339670 gnorm: 0.125158104552 xtb: 6.4.1 (79825abcba525fcdf90b791dcacef51065a7a4e7)
C         0.57439984202086    0.24059342504824   -0.43423269218006
C         1.92524463386011   -0.19237664976728    0.12090412794367
N         2.85719641015873    0.93725031998851    0.24441249746456
C         3.44881936541261    1.80679582080709   -0.74284873098148
C         4.33454914674203    0.87604953080013    0.07569360010995
S         4.91809946629019   -0.31445682052272   -1.24950196738345
O         3.95253253477036   -1.37303516738161   -1.45463906444938
O         6.32194190708929   -0.66626623778485   -1.17218571971664
C         4.72569272128481    0.82711531165782   -2.63837869002070
C         4.83689039744250    0.15595689557302   -3.99077001597188
O         5.66654378061697    1.91083173840385   -2.46649416265070
C         3.42549895282806    1.48421745743296   -2.18477428063978
O         2.50570187645157    1.48432058269447   -2.98724426952868
S         1.78098232161572   -0.86716726110048    1.85135326605895
C         1.07906305480124    0.50869451312110    2.73116280214625
O         0.90536945903195   -2.02353958879685    1.84545240091004
O         3.13271540792121   -1.04770054056408    2.35991508691781
H         0.66104171551671    0.24040654710315   -1.52225239784033
H         0.37653373934891    1.27993291074943   -0.16178974388510
H        -0.24538545435451   -0.36657811790174   -0.03380522182007
H         2.29790627400398   -1.07176440147979   -0.39282451667518
H         3.42236946329205    2.86599155821434   -0.50149024508725
H         4.86832320564904    1.14354864615281    0.97828196259478
H         5.76893576271702   -0.40139963540943   -4.13031128670101
H         4.75935164388072    0.90588736430302   -4.78703125286011
H         3.99560316106878   -0.53489668385115   -4.09991098600952
H         6.23782917865263    2.15580448148105   -3.22776638273778
H         0.07967859372894    0.72674137188937    2.35271348007344
H         1.83424000510208    1.23396175766781    2.42652879103280
H         1.08110405977910    0.25139740620072    3.79344624533091
