30
 energy: -57.471510283959 gnorm: 0.125304194218 xtb: 6.4.1 (79825abcba525fcdf90b791dcacef51065a7a4e7)
C         1.29794442810086    2.20550984561837   -0.31431779035885
C         2.01894258256700    0.88039422328379   -0.10300800844138
N         3.36743312012401    1.08502065482977    0.44430093695479
C         4.54421840108187    1.47958082680922   -0.29075697529087
C         4.47568715251606    0.09676211554179    0.34480021363376
S         4.47381633668029   -1.07646230572487   -1.11722604051036
O         3.08650955532540   -1.39130881252817   -1.38413502548145
O         5.50470340349811   -2.09418227214870   -1.07206880161998
C         5.12597018167595    0.17007997792677   -2.25301366868583
C         4.77986802814067   -0.21711221862124   -3.67501097885233
O         6.52742630567807    0.24872156304861   -1.90816220009402
C         4.50023902422112    1.47434825573894   -1.76784485231597
O         3.90735888829605    2.36272502721292   -2.35883093819329
S         1.18825681308479   -0.28539468257659    1.08926106741609
C         0.55100782192211    0.63278481198878    2.47150968478884
O         0.02273229299160   -0.75588411577473    0.36529839319841
O         2.18860902895416   -1.21042501500801    1.60114392272614
H         1.33871425553804    2.67193204954503   -1.30025992099166
H         1.59043384986748    3.02226157818529    0.34973738376255
H         0.23964413929720    2.02391030007110   -0.09507025158912
H         1.99906843294932    0.28010897047734   -1.00599152160554
H         5.05714301036530    2.30776161275054    0.19077616415273
H         5.00707908844080   -0.19110343801009    1.24251533132250
H         5.05650802939334    0.68241603360013   -4.23460535343172
H         3.73810132427593   -0.52227610150824   -3.51997207326240
H         5.45610245355259   -1.02666150520895   -3.96534111389276
H         6.92210082217663   -0.65132364532242   -1.91620537235874
H         0.42253076685357   -0.18698172615902    3.17933317412481
H        -0.36976645115192    1.18566230508749    2.28280913282125
H         1.35667045911880    1.21172606634736    2.93018911451971
