30
 energy: -57.467374009152 gnorm: 0.129973017578 xtb: 6.4.1 (79825abcba525fcdf90b791dcacef51065a7a4e7)
C         0.45693353103105    1.25459859543814   -0.40458880567908
C         1.70798561314779    0.44705420145790   -0.08339990454252
N         2.87743050925745    1.26485960635098    0.26793856345063
C         3.88081408081711    1.77003668296689   -0.63695314399308
C         4.17775034462370    0.54291148807972    0.21557819952046
S         4.55410824083301   -0.66111562299021   -1.17101952015734
O         3.45348544275272   -1.42860697036942   -1.71376745332851
O         5.75681210752190   -1.34250612525583   -0.73543755316253
C         5.04355047789924    0.61074481297066   -2.35929691445365
C         5.11832166316359    0.11320205440356   -3.78710688784729
O         6.25799500141935    1.09805181258486   -1.74542177349181
C         3.83297965559293    1.49925232617528   -2.08889593183126
O         2.90069818969333    1.74797854026938   -2.83653971714088
S         1.75149002666234   -0.68989440060882    1.39174870849276
C         1.19868932065464    0.46591522767671    2.62392831472240
O         0.63805973576235   -1.59896351319636    1.19733676837758
O         3.01191237792219   -1.29067104338064    1.80261687479648
H         0.67721085955543    1.74530340142335   -1.35431530623220
H         0.29900906281423    2.03966822801679    0.33859909995510
H        -0.43285927833246    0.62440423964396   -0.51491201975084
H         1.99773105563555   -0.23983025237027   -0.87102540360427
H         4.26482256802012    2.76574865865046   -0.43214984810583
H         4.75075429468013    0.54455756501119    1.13361967635909
H         4.15084253252019   -0.32887023836791   -4.04668895712952
H         5.93388458577341   -0.54150048340650   -4.11674552206903
H         5.19146369692662    1.03147513835944   -4.37734363623920
H         6.80801551629701    0.28360713674552   -1.75386848835363
H         0.11907455704137    0.46214543561051    2.46915307847465
H         1.69201654250656    1.43310362929490    2.52253043035791
H         1.42878943665416    0.22433679894490    3.66476734160723
