30
 energy: -57.472784350280 gnorm: 0.128013584785 xtb: 6.4.1 (79825abcba525fcdf90b791dcacef51065a7a4e7)
C         0.71663205698694    1.23289198258398   -0.45033377223730
C         1.77537310070507    0.19413987989507   -0.10322704079445
N         2.96328691953846    0.98968637076257    0.23708464775101
C         3.85943285653305    1.78527560932427   -0.56589236291627
C         4.39281658334515    0.57803921363901    0.19496213878863
S         4.85303524342184   -0.62513145494006   -1.16685970848560
O         3.72792833520633   -1.51087396560310   -1.37800774771591
O         6.18683929405125   -1.15296396411395   -0.95978275566298
C         4.96418561865650    0.60540170827636   -2.48694287512667
C         4.81601235674386    0.00995265984739   -3.87087421623936
O         6.25126822665454    1.22220646939281   -2.25856479778737
C         3.92091059834008    1.62218910757423   -2.03332999578188
O         3.20709889522366    2.23221887075944   -2.81327953942232
S         1.43154739925896   -0.72794925088645    1.47858955105755
C         0.88437200990822    0.45397757923709    2.68829991281658
O         0.28321031822078   -1.59211950309412    1.28247379723198
O         2.58762153519883   -1.37294656294382    2.08347035423021
H         0.91416928806403    1.56264263544456   -1.47187049678493
H         0.78263652144187    2.09814100928785    0.21343595863709
H        -0.23646300551461    0.69747523297170   -0.52770354853995
H         1.83007368278269   -0.61014108185159   -0.82866251364427
H         3.88274557936074    2.84115924731181   -0.31012809641656
H         5.12433103099775    0.67118557237786    0.98701429282618
H         4.02731296017735   -0.74328335353397   -3.96790720892205
H         5.74706103393747   -0.55778053557434   -3.98605799479843
H         4.80635899827060    0.72442770460453   -4.69935889134245
H         6.85647498168877    0.47189605105059   -2.06706256877964
H        -0.08987898442175    0.93686060843879    2.60346711591561
H         1.58095547740755    1.26059053637282    2.91906753080695
H         0.88492321287976   -0.22357885919445    3.54595313495889
