30
 energy: -57.474740311181 gnorm: 0.121668388029 xtb: 6.4.1 (79825abcba525fcdf90b791dcacef51065a7a4e7)
C         0.28242382637235    1.35522562025172    0.17966892952882
C         1.56056309665905    0.60494648285266   -0.17227260986059
N         2.74368403207503    1.45745321358136    0.01021753589454
C         3.73339942189790    1.89974265424905   -0.94144172132510
C         4.13334177176898    0.95400405020374    0.18392136640916
S         4.49770944591957   -0.57661844010095   -0.83510299169185
O         3.32092159393641   -1.29373889699828   -1.27770602603331
O         5.73379600969503   -1.16564962973587   -0.36007296287608
C         4.89957342187154    0.33347838827619   -2.34487613567407
C         5.03782153284728   -0.52003597801337   -3.58752714498841
O         6.17621936229947    0.94119454004127   -2.04480527378336
C         3.91052709829844    1.49528087752150   -2.35168509277636
O         3.45825100096465    2.17724500938287   -3.25742015832544
S         1.82976718947757   -0.70501747641062    1.12469762183206
C         1.29924022611516    0.07563804172771    2.63097422388809
O         0.89071504456759   -1.77111336275055    0.83220779928623
O         3.23732267821091   -1.02313001292817    1.31443872819273
H         0.14342740721625    1.97340609156505   -0.70905297894884
H         0.35543142402232    2.00107933976348    1.05781788298051
H        -0.52361608173074    0.64075038941577    0.38183763421926
H         1.47641257898205    0.22789532071154   -1.18561743794217
H         3.94951410074657    2.96093039332739   -0.85186409453150
H         4.66967825065501    1.14217200408550    1.10482975099842
H         6.01466408790513   -1.01407947273851   -3.56458637000690
H         4.88553074122432    0.15429998288048   -4.43871364029635
H         4.36026379021215   -1.37802563979278   -3.62904676645197
H         6.64993960386726    0.43199496687068   -1.35038539267905
H         1.60847281188474   -0.68233207972393    3.35166425838497
H         0.21540194976985    0.16008616126310    2.71623728121792
H         1.85756394313357    0.99511856626460    2.82457761388321
