30
 energy: -57.481948376093 gnorm: 0.119866460296 xtb: 6.4.1 (79825abcba525fcdf90b791dcacef51065a7a4e7)
C         0.44236681943919    1.46376636856940    0.10222366519757
C         1.68111125790533    0.62138399369832   -0.17404744187618
N         2.88590745197550    1.41209130764557    0.11421261961619
C         3.79899784098940    1.99374388316687   -0.83907520873547
C         4.28496057335448    0.90474046347136    0.10893788763284
S         4.48784782341716   -0.65237789651126   -0.91487800332514
O         3.22739675961130   -1.27795266763909   -1.25385905429326
O         5.65694905976147   -1.38914202102026   -0.47795446551578
C         4.92242540319926    0.44823738795088   -2.28198230300847
C         5.17238523978097   -0.24408319384731   -3.60485536499832
O         6.12941485642535    1.04912801281147   -1.76112414767190
C         3.80800532968666    1.48900139791253   -2.22792510732803
O         3.13746790799071    1.83037464902158   -3.18908511598897
S         1.80317386338762   -0.73531282721268    1.09681157263060
C         1.25084891103269    0.08049950905987    2.57638532169036
O         0.77722934162102   -1.73020736222743    0.84871407221569
O         3.18939040195818   -1.11680995915295    1.32324782279252
H         0.35213448573624    2.23870604162772   -0.66107205960111
H         0.51829087906988    1.96097063508396    1.07208251195497
H        -0.42528721131615    0.79476019391665    0.12780884068637
H         1.57316177745647    0.26885243401537   -1.19394204394825
H         3.99202408767119    3.05536752254300   -0.71044642562123
H         4.83597982126724    0.88058632159132    1.04002906605923
H         5.56031660695640   -1.25052330588019   -3.41666879186887
H         5.89031972316218    0.27966066133677   -4.24727452318096
H         4.22885576993177   -0.31738546913821   -4.15379393079298
H         6.66334912271341    0.27641065905068   -1.47175218244078
H         0.20262788378477    0.34529607542473    2.43267352917541
H         1.96272288089729    0.90653247577414    2.57296890335715
H         1.38581769122474   -0.49787502543501    3.49394644042631
