30
 energy: -57.480080561662 gnorm: 0.119626583412 xtb: 6.4.1 (79825abcba525fcdf90b791dcacef51065a7a4e7)
C         0.59277510126334    1.90752100563393    0.24582229482087
C         1.77823757473918    1.04316906204186   -0.16405087193603
N         3.07943531029942    1.58719388002748    0.24918904983509
C         4.16594164118798    1.86067965724115   -0.65939279266540
C         4.25988093322358    0.68244532444532    0.30172962773309
S         4.25082033846831   -0.74708268735872   -0.91084918166700
O         3.02648053570150   -1.03815634559808   -1.62587156127313
O         5.12708883497632   -1.83240940327716   -0.51747824334502
C         5.13240847311912    0.23729589349338   -2.14494278016833
C         5.16145053907653   -0.47196513488710   -3.48206139855095
O         6.36526666025530    0.51381094856753   -1.44295530426474
C         4.25781006684666    1.48615152594031   -2.08594074391732
O         3.68256676782322    2.05251186179331   -3.00153661782443
S         1.59145285235709   -0.50830906901321    0.85016569587970
C         1.44704743218374   -0.06043254900380    2.56431411378983
O         0.36010043275859   -1.11455223416446    0.38094281628270
O         2.76715722934400   -1.36513796413891    0.89458632447723
H         0.36658927761630    2.68959776169434   -0.48115064577985
H         0.76895181821120    2.35854640633792    1.22517952303533
H        -0.32450126315325    1.30790798192713    0.25657747101716
H         1.71250713384182    0.72969219565327   -1.20016300767868
H         4.61953624199742    2.83614678231587   -0.50588357469986
H         4.90848546456709    0.49640634114261    1.14780178059724
H         4.38504851036637    0.06054331168371   -4.04104375522530
H         4.90986711007183   -1.53609603089448   -3.39977447822702
H         6.08543520815580   -0.39866010116585   -4.06329571976728
H         6.78329479392592   -0.31038308558850   -1.10848450247271
H         1.46417715713728   -1.01983987653552    3.08275579336813
H         0.52474499371685    0.37423064652850    2.95100882674555
H         2.30519440535070    0.49432228220155    2.95223540719740
