30
 energy: -57.469789572332 gnorm: 0.147788471369 xtb: 6.4.1 (79825abcba525fcdf90b791dcacef51065a7a4e7)
C         1.08082384099645    2.24290745269384    0.05007093761190
C         1.94217727689552    0.99238178542954   -0.07107937796347
N         3.27580831006569    1.37411645741003    0.41425832437754
C         4.40313621950369    1.60986794818269   -0.45428325650723
C         4.31286410208848    0.30971709696208    0.33456131686353
S         4.40653169219123   -0.94905468532259   -1.05133182583779
O         3.12447813891344   -1.32358279233919   -1.60905596282966
O         5.46643157633230   -1.89560996035690   -0.76643429929983
C         5.14213961067838    0.17814853062887   -2.25859308026804
C         5.15495447457306   -0.28021856609515   -3.70133915371375
O         6.51499310667295    0.47112657917136   -1.91417553723588
C         4.25289008436476    1.36624738921006   -1.90405057798427
O         3.41202074546689    1.73985387486147   -2.70613638035714
S         1.34568188137059   -0.36106193744237    1.06161276820916
C         0.72035546849732    0.38213821716188    2.55036107097318
O         0.23871786458067   -1.05494909359489    0.43146917500177
O         2.51069217118230   -1.14057114488835    1.45343689918798
H         1.34803780180233    3.10362005944067   -0.56561099483738
H         1.00490080031209    2.58826998801785    1.08378421402185
H         0.09263664726640    1.90265315637198   -0.27971757377431
H         1.85931437305430    0.54030327315982   -1.05336006497218
H         4.88986149299938    2.51115758623203   -0.09148202963131
H         4.90631363567513    0.04211435918847    1.19905124643983
H         6.10929780306288   -0.17401061098459   -4.22743354856329
H         4.28779632348944    0.24683652613724   -4.11689852810244
H         4.90778786585667   -1.34556257913388   -3.73142958676728
H         6.95354665996747   -0.39817396917249   -1.78037949393902
H         0.12901860038636   -0.32738080946834    3.13039648524608
H         0.02156095066934    1.19278240728088    2.34143787574380
H         1.63691549036025    0.71446631117648    3.04445402237190
