30
 energy: -57.472954335946 gnorm: 0.130523247995 xtb: 6.4.1 (79825abcba525fcdf90b791dcacef51065a7a4e7)
C         0.51190243317483    1.42203733361588   -0.23915740782083
C         1.69971114969257    0.47338304612591   -0.14124383107910
N         2.90140415536555    1.21663540292464    0.26292895416713
C         3.75269904234237    1.90335881413677   -0.67755998207443
C         4.32547053473906    0.79045781783415    0.19088763317443
S         4.59733471661068   -0.59110754636947   -1.04658834611903
O         3.47923521355566   -1.39163755351434   -1.49824533920446
O         5.82221387201522   -1.21630778278387   -0.58907662315918
C         4.96363798749494    0.57319819463065   -2.38052983397358
C         5.04830896022434   -0.11883258055590   -3.72429509701019
O         6.26031964357172    1.10093688452382   -2.02095388714827
C         3.75615973332522    1.45848677346867   -2.08675373669816
O         2.88460818334881    1.69031600526784   -2.90933370284140
S         1.69761480687707   -0.72486995446833    1.28521806430423
C         1.23553738893256    0.30374266743476    2.65933291880740
O         0.58881603935414   -1.64687960758803    1.12903496857295
O         3.03065374494450   -1.27676228992770    1.47713410810444
H         0.67404177989174    1.97725679069046   -1.16475771061648
H         0.51617061000894    2.16544350122589    0.56142474362858
H        -0.41499674182165    0.83810136374677   -0.20875867794979
H         1.83446057588724   -0.20764300445181   -0.97440810178501
H         4.06968864802602    2.90968718721156   -0.41742534398555
H         5.00348180880247    0.85514364670699    1.03187090857893
H         4.73962191823483   -1.16357568821940   -3.61451905352825
H         6.06844898511865    0.05086236254247   -4.08892899370353
H         4.36216446967340    0.39883004614235   -4.40118931006766
H         6.76103647723098    0.31884020746268   -1.69920634045181
H         0.57361432557584    1.09291973647922    2.30073142023413
H         2.13843227328492    0.61184416912542    3.18750048261104
H         0.73960050343418   -0.51966800009327    3.17961511022271
