30
 energy: -57.471650196312 gnorm: 0.143817731364 xtb: 6.4.1 (79825abcba525fcdf90b791dcacef51065a7a4e7)
C         0.66499724603157    1.93122888451368   -0.09602552325472
C         1.76212318680465    0.88682082760818   -0.25710967389002
N         3.08122545873514    1.39358288947123    0.14663150045286
C         4.31970580324996    1.73837943191563   -0.50765713623469
C         4.23629813005925    0.47532998326046    0.34002601078011
S         4.27584389488119   -0.80476387799169   -1.02883318313464
O         3.03895675982235   -1.15695558298381   -1.69295671331199
O         5.03658407467836   -1.88590529449424   -0.43475500734495
C         5.20097748214839    0.18998534657118   -2.22205892238593
C         5.23154113506765   -0.23600647607042   -3.67442859734222
O         6.50588782079382    0.11973342416133   -1.60443446200692
C         4.55946703916582    1.54803729659797   -1.95335224403589
O         4.05994321341794    2.17583439108699   -2.87331501998922
S         1.41777415268636   -0.41263203876423    1.03263999024851
C         1.41516055231643    0.24420989131690    2.68439752258612
O         0.06088742009825   -0.87199922490326    0.80511010445172
O         2.48042272016407   -1.40569725936908    0.97778366164491
H         0.68856700807029    2.58832267639478   -0.96721203829082
H         0.80775467486142    2.55536903181622    0.78922704784961
H        -0.34936674996127    1.51963914705749   -0.04399720853210
H         1.78891491240784    0.28897080450587   -1.16152892629194
H         4.75915643599729    2.66672240787256   -0.15281691891008
H         4.55155591640527    0.10295422651901    1.30598929141570
H         4.51510080188257   -1.05589667266443   -3.78984066732703
H         6.18660056722111   -0.58011426089189   -4.08902627839622
H         4.87163570127582    0.58370740125694   -4.30331004207350
H         6.53583921735744   -0.61326225147759   -0.95042047331236
H         0.75506186135209    1.11171467456958    2.64914426289638
H         2.43765884198218    0.52739638086736    2.93620964105830
H         0.94437147527160   -0.55514951821243    3.26235449327548
