30
 energy: -57.478162842328 gnorm: 0.123099257240 xtb: 6.4.1 (79825abcba525fcdf90b791dcacef51065a7a4e7)
C         0.62548549520094    1.26609261035233   -0.45234076466465
C         1.84077661882345    0.41919901705229   -0.09700943240110
N         3.02919975959691    1.18171791284388    0.31049627440401
C         3.95701569472430    1.84046861586362   -0.57607968849277
C         4.38771434199921    0.58872930844111    0.17788639606349
S         4.66504636779950   -0.72316312456247   -1.13207726685359
O         3.48605050629220   -1.46234508157154   -1.53028279451663
O         5.86587664323738   -1.49043205699448   -0.86783059548308
C         5.05354265028490    0.52908948365023   -2.37711537054686
C         5.04894030589078    0.15049564981424   -3.84286649962488
O         6.25754838274259    1.10421352587497   -1.82142765947345
C         3.94093637730491    1.50876854077454   -2.01603331987314
O         3.02910200545842    1.65515780720651   -2.81422691388560
S         1.50836187558933   -0.63500112793660    1.40258074346738
C         1.03173853577813    0.56754999151130    2.62178216069258
O         0.38528549893674   -1.51636562784967    1.14601547674225
O         2.70394284891538   -1.31462517342932    1.87913821114582
H         0.84783061032574    1.90149591589441   -1.31147929671689
H         0.34733300641773    1.85389706487127    0.42556574360531
H        -0.21466257447259    0.57276073554412   -0.57271313165675
H         2.14356413302768   -0.26460572973231   -0.88240577420238
H         4.19684749099199    2.85461118200199   -0.26811105075537
H         5.04363163199957    0.57023388907501    1.03844823781507
H         5.64898156727378   -0.73611352749557   -4.07243409878150
H         5.45162528975085    0.94582269732826   -4.48141141932573
H         4.01286928478846    0.07171259038422   -4.18536423969871
H         7.04103460198100    0.53777222422904   -1.99808450193625
H         0.72555548914293    0.07341212027320    3.54461330947822
H         0.12584332592063    1.00434582816333    2.20027302804350
H         1.79446555928516    1.34549442221937    2.70954337623022
