30
 energy: -57.473321474516 gnorm: 0.130471218926 xtb: 6.4.1 (79825abcba525fcdf90b791dcacef51065a7a4e7)
C         0.62748902137755    1.44607187508864   -0.28992281380975
C         1.77682049327943    0.45446348490555   -0.16275539855150
N         2.95868897754368    1.24606023725434    0.20657814062601
C         3.88619076493741    1.88444035185080   -0.69509958182690
C         4.36703187030345    0.76525043218335    0.21978992189067
S         4.78566195256445   -0.62918121918420   -0.96101024441302
O         3.70580892944075   -1.57390665759583   -1.15179841324852
O         6.11254110265505   -1.15964232895301   -0.71909293422830
C         4.95169472435602    0.47698338819937   -2.38158013681916
C         4.78606913051603   -0.24768008274590   -3.70037195685027
O         6.18786636894689    1.19488395152897   -2.16784022946691
C         3.82992769236543    1.47607613249913   -2.11419200043679
O         2.95023552355563    1.74846392219492   -2.91539813644618
S         1.51496333826392   -0.69177854660291    1.28229415098401
C         1.12893445051792    0.30784100084699    2.70056547885538
O         0.38082842672938   -1.51916825572328    0.91747373019543
O         2.79624304323710   -1.33132480003560    1.54251067005761
H         0.95806597374893    2.10059812069706   -1.09838308181796
H         0.43144507499468    2.14039663171289    0.53049331906679
H        -0.32937927498952    0.96698805924247   -0.52641623980201
H         1.98895467485066   -0.17739535899619   -1.01824945811780
H         4.19449050929486    2.89320434286700   -0.43395648812440
H         4.97159944333325    0.78926538478233    1.11704002721025
H         5.75057604198985   -0.07660905644405   -4.18954243080455
H         4.02928307253717    0.21089508758901   -4.34800117050524
H         4.45794496091157   -1.28486829964005   -3.81668947355787
H         6.75297874677437    0.58467926406539   -1.64418740215482
H         1.70462958914566   -0.04532538509801    3.55694520410462
H         0.09210035067758    0.13404977987541    2.99018306057947
H         1.36393304983607    1.35832746404059    2.51107687976858
