30
 energy: -57.468209875139 gnorm: 0.138465651232 xtb: 6.4.1 (79825abcba525fcdf90b791dcacef51065a7a4e7)
C         0.58882379240834    1.65522841672158    0.03454112515297
C         1.77785580979847    0.71956330377053   -0.14196734431547
N         2.98333765835146    1.51587881265410    0.12736687705444
C         3.89721177359785    2.03562537090564   -0.86031174714568
C         4.34941989579108    0.92720818112648    0.08188578587128
S         4.54403883194689   -0.62682312221475   -0.94820643852117
O         3.29627653130584   -1.29612051392902   -1.24840482580821
O         5.69455685480977   -1.33693179700028   -0.42611908534237
C         5.06596161282666    0.41568115941071   -2.33022209508037
C         5.16849045095311   -0.46732562840511   -3.55560680960745
O         6.22328344990685    1.06496058971286   -1.75730963360874
C         3.89798012256583    1.38711400227247   -2.18816059515836
O         3.02804322213966    1.46693050220729   -3.04070021933959
S         1.71481409683536   -0.63296345588794    1.13760495434348
C         0.82012870281528   -0.03675362455398    2.55316950064523
O         0.89182203386072   -1.62598692667015    0.47388956483738
O         3.07347718326769   -0.94290926687707    1.55757869368998
H         0.27587960635092    2.20822720471668   -0.85290014697567
H         0.79503901979929    2.30563424521136    0.88779974050015
H        -0.32869038546198    1.10529484870020    0.27284384041993
H         1.71068775532025    0.11043408795941   -1.03671123671757
H         3.98275316163347    3.11815297986088   -0.81949626511078
H         4.95964290967023    1.03148468531315    0.96951785772999
H         4.41724503532422   -1.25878099642212   -3.46585517058086
H         6.14045028148834   -0.88326848230871   -3.84668335061914
H         4.80892492917259    0.05870901038336   -4.44496322131733
H         6.90625931263972    0.41089624927439   -1.48961978844472
H        -0.25689844985981    0.08721736193111    2.43408411428577
H         1.39673213731088    0.76103377633858    3.02239271505530
H         0.87569788983318   -0.99745326240104    3.07145547555377
