30
 energy: -57.471365123934 gnorm: 0.146081640419 xtb: 6.4.1 (79825abcba525fcdf90b791dcacef51065a7a4e7)
C         0.88058938173150    1.44879714358961   -0.52896588141564
C         1.85678966824155    0.34486814409671   -0.14322586880712
N         3.03986061172345    1.12864959402899    0.23871073204918
C         4.07033195450876    1.80919482960235   -0.50680819178888
C         4.41646478008786    0.56701531861571    0.30436331280151
S         4.76042698308636   -0.67699587656982   -1.05508728603315
O         3.68440341869468   -1.61567327580947   -1.29182947037293
O         6.06531850949077   -1.27674677690612   -0.85995087861003
C         4.87522541197105    0.50883114569209   -2.41516869232055
C         4.70450793640443   -0.14375259115625   -3.77044388901582
O         6.18527111824024    1.07768801621494   -2.19297866144410
C         3.94905906302403    1.63646593402743   -1.96941126890108
O         3.10242212878667    2.20740692216390   -2.63815411045267
S         1.38429315386888   -0.66159692080727    1.35155949400250
C         1.10766236293996    0.43688331860369    2.72143820057798
O         0.22678652168098   -1.44757069441276    0.96899800658634
O         2.60172683805342   -1.40587408287564    1.63846794574367
H         1.12287576960851    1.85900247821246   -1.51096517989270
H         0.77913178509560    2.19306306644084    0.26436716194130
H        -0.12280613003859    1.01791793225055   -0.62163696814732
H         2.01584597753450   -0.40193171172293   -0.91336069851217
H         4.38321022584117    2.78722330623791   -0.15125689669594
H         4.97778548837403    0.58228866835085    1.22946989185870
H         5.34700841016240   -1.02943928862837   -3.81017858248705
H         4.91994391473495    0.52804607918270   -4.60991622830660
H         3.73632035281977   -0.58592910795884   -4.02351969495630
H         6.78282496643168    0.37768598354369   -1.84824601646396
H         0.28332951319453   -0.09585986149904    3.19704063927306
H         0.63447839646940    1.37428028622866    2.42734545749489
H         2.02176623471219    0.68598134933945    3.26643027648266
