30
 energy: -57.466987905973 gnorm: 0.124832515516 xtb: 6.4.1 (79825abcba525fcdf90b791dcacef51065a7a4e7)
C         0.62982104159612    1.51164096566402   -0.36063305260432
C         1.86250240831132    0.66997125572398   -0.05647793529210
N         2.99045829635966    1.54468692646725    0.29342744249362
C         3.93367671285720    1.95210859285756   -0.71907345091948
C         4.30904738947964    0.85511173563173    0.26911266708288
S         4.56356407794516   -0.60986668543834   -0.87239479425974
O         3.42237116848032   -1.38905782111768   -1.30312527380470
O         5.78693612260832   -1.26183104606020   -0.44951825338708
C         4.90939931760971    0.41064664826910   -2.32433706603415
C         4.80275778047624   -0.25642102325631   -3.67911717819889
O         6.28640559170736    0.82112989210361   -2.16767331532775
C         3.85181950367173    1.49145324277391   -2.12080317896669
O         3.02095049442488    1.74923736836088   -2.97706757523382
S         1.71467886781998   -0.68477515536051    1.21372619176262
C         0.87211396011153    0.05792728994580    2.59148834659308
O         0.83029254463895   -1.72392093670109    0.72182524133286
O         3.08529404743713   -1.01902020725546    1.57164238868863
H         0.82101721504482    2.09361103874694   -1.26398713064892
H         0.64772693323558    2.25923581848947    0.43584923882711
H        -0.24490618584000    0.86188993566048   -0.47777935130981
H         2.02176536607929   -0.09676734167057   -0.80672044443026
H         4.43565738655419    2.91305729334117   -0.64530187381602
H         4.86177848889021    0.93078951103491    1.19641930735928
H         4.33773696179125   -1.24216178631283   -3.57472648410236
H         5.79684811978481   -0.26382709163556   -4.14190165316276
H         4.10107760498071    0.39663901605146   -4.20648057213442
H         6.77222328762230    0.17867445973935   -1.60451594186471
H         1.57877147406558    0.42566672194960    3.33643162677958
H         0.28412238168927   -0.74478395133479    3.03761304847949
H         0.37566807273287    0.96924344346030    2.24841921437474
