30
 energy: -57.475568918697 gnorm: 0.130149013573 xtb: 6.4.1 (79825abcba525fcdf90b791dcacef51065a7a4e7)
C         0.77607548074895    2.05779814903980    0.06675667608796
C         1.78860793069613    0.93973729490769   -0.14570411061445
N         3.10508304373537    1.32483475949780    0.38196885138804
C         4.19179282171530    1.76199156384270   -0.45991452389884
C         4.28546977278556    0.42593174599955    0.26602367501806
S         4.42499544441633   -0.86624149411275   -1.08482809280278
O         3.10363876063741   -1.22349897804155   -1.55533043247752
O         5.31866677934142   -1.95875594195706   -0.75576123449365
C         5.15506522718732    0.34311798768434   -2.21338185377941
C         5.27187408710689   -0.15041449971955   -3.63976266505170
O         6.48984710448608    0.50536201957099   -1.68307956887040
C         4.19163979855921    1.48721650141781   -1.91189544509439
O         3.32954897152891    1.87780429673452   -2.68275556534278
S         1.33554792438084   -0.47807053665864    0.97463770501877
C         1.44080728007481    0.25587511058363    2.59018570918873
O         0.04426370159851   -1.09239097901807    0.73148113898834
O         2.50608971108836   -1.34255183818023    0.94440969696169
H         0.96566619719162    2.89411672533666   -0.60846204996806
H         0.90669117736418    2.34067068578963    1.11390775913470
H        -0.24204031335158    1.66920909749741   -0.04937322255324
H         1.71722380607862    0.51519953757660   -1.14108777231385
H         4.84208406180862    2.59337915838860   -0.20152513880570
H         4.87822415112439    0.10076410263799    1.11103520680559
H         4.28705073267171   -0.44997507899510   -4.01287531709380
H         6.03483436031262   -0.93633248550582   -3.58814421606654
H         5.76517435910205    0.59801241045780   -4.26703185368681
H         6.79412489695537   -0.38406332159626   -1.39628411652479
H         1.24099708791797   -0.49204908350432    3.35844537232003
H         0.68170717396436    1.03751030831806    2.63400499299682
H         2.43112473383641    0.71745927785682    2.61957070285612
