30
 energy: -57.472702287268 gnorm: 0.134576768406 xtb: 6.4.1 (79825abcba525fcdf90b791dcacef51065a7a4e7)
C         0.42841329310384    1.34727130182753   -0.19811345405157
C         1.66625831008140    0.46024838219877   -0.16134820531377
N         2.85477564436355    1.23407207347232    0.22396849563149
C         3.80511200957834    1.78823761669484   -0.70907662653165
C         4.24254091511200    0.69784530493727    0.26072647171231
S         4.64588285676278   -0.58136443108949   -1.04882206560706
O         3.51095222265545   -1.31364344839157   -1.56909962795825
O         5.82016812229811   -1.37968769013962   -0.75855433495254
C         5.06061058648742    0.53485421094586   -2.40942586333727
C         5.19818342904680   -0.07944524435548   -3.78619408422350
O         6.23295493808070    1.13978933419600   -1.81879186729034
C         3.83860579119134    1.40673305841001   -2.13634056559305
O         3.04866608196255    1.71585710264657   -3.01407762152427
S         1.61190024477029   -0.67531958031022    1.31450368195588
C         1.17817137445518    0.34063529992050    2.70715081877635
O         0.55226183182888   -1.66515156197486    1.27805168099157
O         2.97036478529089   -1.18765275031523    1.41696608048234
H         0.44594169619669    1.87304288976756   -1.15443490699799
H         0.48003225572040    2.13177400273619    0.56049956690615
H        -0.53102091382588    0.90140147350078    0.08777720812665
H         1.77096506947230   -0.07304045359219   -1.09983429828934
H         4.06306856085683    2.83385711183192   -0.56420635402337
H         4.92263835257595    0.75130046011140    1.10081352145449
H         4.38963422423957   -0.76641684906425   -4.05664709217556
H         6.09746356745320   -0.70631822479221   -3.81386035535067
H         5.06707017946608    0.64654409711906   -4.59409471270895
H         6.84843546416418    0.41908014287835   -1.55864570155970
H         0.11310416670026    0.57444567357537    2.68474155615272
H         1.83919061010568    1.20715942653802    2.74315347289533
H         1.36863937729636   -0.27134021733341    3.59250949563349
