30
 energy: -57.471111623794 gnorm: 0.135418325485 xtb: 6.4.1 (79825abcba525fcdf90b791dcacef51065a7a4e7)
C         0.67069501146674    1.02813122181235   -0.56567377424356
C         1.82662648387827    0.13847006082274   -0.12664408964168
N         2.90648707143561    1.03482119124656    0.30959128468020
C         3.80865139071926    1.75819285465322   -0.55275714266722
C         4.33192203444457    0.60731089115061    0.29722875005259
S         4.85146697358608   -0.56592091901115   -1.06936548942406
O         3.80288218783378   -1.51866395934459   -1.36557401496671
O         6.17970383243605   -1.07837810467558   -0.79789588757612
C         4.96544577107743    0.62633834366885   -2.42388109445892
C         4.84908286348875   -0.05136495162850   -3.77256888660228
O         6.23790902869580    1.29954518551879   -2.29420416857472
C         3.84691298058888    1.58204940270448   -2.01947438137628
O         3.04324336951853    2.07599004736244   -2.79415015201269
S         1.34783480842362   -0.73493411983620    1.44769128495334
C         1.46144082702118    0.52104850733196    2.70042925089732
O        -0.01174169144870   -1.20113849769886    1.25240973213252
O         2.43703516896726   -1.68196219076572    1.63528162323015
H         0.87082779069014    1.38744908858874   -1.57667885402793
H         0.76140466321793    1.95006658461608    0.01347186303173
H        -0.29479381511631    0.53710642727478   -0.39902038451559
H         2.00052850064289   -0.68198370510109   -0.81419797333403
H         3.81992775909962    2.83833541691799   -0.43437645745692
H         5.04761970907914    0.56850727403680    1.10803535317430
H         3.76354692503296   -0.14901276838536   -3.87698756972037
H         5.31942640364751   -1.04161558767878   -3.79747983766279
H         5.19308896614018    0.57676260365707   -4.59965425647187
H         6.98636347431264    0.70222764836564   -2.07297635224583
H         0.62170310239092    1.21633910687120    2.73123767677700
H         2.36055355806239    1.06766884762275    2.41423144602258
H         1.46839938618687    0.11737438819251    3.71613140440773
