30
 energy: -57.473254699352 gnorm: 0.124891760564 xtb: 6.4.1 (79825abcba525fcdf90b791dcacef51065a7a4e7)
C         0.57019379005427    1.50687591493500   -0.36794183930508
C         1.65161366339951    0.44691811472511   -0.20228515442792
N         2.85408261814282    1.17834288019460    0.22071808924329
C         3.79626445705657    1.83363882585693   -0.65317689817760
C         4.23112399833118    0.61777191571123    0.15514378188369
S         4.73012457117828   -0.73999922528338   -1.03709593245281
O         3.66702531202213   -1.60651416937919   -1.49965476035317
O         5.98743828523500   -1.33019782777585   -0.62315257514465
C         5.06982120490595    0.51646304026332   -2.29212366329348
C         5.31754281976493   -0.03002205614546   -3.68200455259457
O         6.23481136392348    1.13526598984727   -1.70130462232951
C         3.89649420229166    1.46886227838346   -2.08168731736086
O         3.08450349258180    1.69335681768142   -2.96500947706936
S         1.39459905344255   -0.66695803439994    1.26871165503522
C         1.45357521648192    0.59022952060299    2.52400140762538
O         0.02291201064477   -1.13719926383713    1.23296940010530
O         2.43022088431108   -1.66416180000549    1.49560766741842
H         0.64745017310662    2.06392686579329   -1.30336656548851
H         0.58895264081849    2.11838719090314    0.53721272636320
H        -0.35068131174924    0.91323087485812   -0.34300212322456
H         1.65067254020371   -0.19967125574092   -1.07293889787951
H         4.13239243348277    2.83545092843265   -0.39972157198512
H         4.97319239409709    0.62854397134708    0.94276976859937
H         4.66901047405284   -0.86413408883023   -3.96921448390877
H         6.34344970523351   -0.41289397527295   -3.74000523369401
H         5.22840400526409    0.73353527987811   -4.46045756947292
H         6.82316569298441    0.36750321051602   -1.52725422155121
H         2.48818373175503    0.90069086689646    2.67478799690768
H         1.18292157125533   -0.01052263538185    3.39288007258193
H         0.69310001301656    1.35872783471225    2.36356485738121
