30
 energy: -57.473943705887 gnorm: 0.136588131137 xtb: 6.4.1 (79825abcba525fcdf90b791dcacef51065a7a4e7)
C         0.53383099829162    1.75645500990337    0.27365121693075
C         1.71965583599753    0.84821376528550   -0.02524489643364
N         2.90674128093068    1.70776379604881    0.08360208757947
C         3.84374847446153    2.09224921430025   -0.94352982061725
C         4.25809902236116    1.08556863702061    0.12217413524666
S         4.43321710811313   -0.48597917756991   -0.88457852067976
O         3.20528321136672   -1.09530669569377   -1.34921510212841
O         5.46777705369122   -1.42245673657583   -0.49314940418141
C         5.05025911875072    0.40770013720232   -2.33018644721747
C         5.15972259939540   -0.61629214274038   -3.43979827458047
O         6.24769247450185    1.07346761860335   -1.86965054015373
C         3.89034844510426    1.39539141056769   -2.24582310099235
O         2.94360347176220    1.38090242652803   -3.01617933355996
S         1.82904371497307   -0.69932052900868    1.00615224036701
C         1.04264186483316   -0.38020402378609    2.56803824410789
O         1.04752547733702   -1.76642564062690    0.41079890485884
O         3.22044626692998   -0.98521888923917    1.32343885594157
H         0.71944642537221    2.64642894124762   -0.33032481494655
H         0.50122748203713    2.18382628193491    1.27858580822582
H        -0.36757287479306    1.15070407540251    0.12673545518210
H         1.66218579165505    0.45913531569189   -1.03590396466718
H         4.11722559604691    3.14367858790362   -0.91995493875866
H         4.76365429795044    1.16620502596628    1.07561423933930
H         5.56767574026582   -1.51225233318620   -2.96057368985956
H         5.89444201959060   -0.24612156019869   -4.16478174746851
H         4.13875054281664   -0.84406485621436   -3.76025152127994
H         6.82719657631856    0.37592861407848   -1.49079914871013
H         1.29418019640162   -1.23545315324585    3.19638131669328
H        -0.03774469269867   -0.34813524235284    2.42366663293766
H         1.34734628316375    0.57048639521691    3.01300456261016
