30
 energy: -57.469140637290 gnorm: 0.123445341995 xtb: 6.4.1 (79825abcba525fcdf90b791dcacef51065a7a4e7)
C         0.72461450942100    1.48680886315558   -0.44480475395567
C         1.87461502280370    0.55059552508649   -0.09634380910794
N         3.07726701407257    1.24435811845324    0.38549349853113
C         3.96166100982869    1.85098578586079   -0.57921472559810
C         4.46159085927007    0.70603491561637    0.29255079312356
S         4.76784530102639   -0.61009909704007   -1.00667171146913
O         3.69490419952029   -1.50077050010452   -1.39460300970252
O         6.07400084840467   -1.17191147113878   -0.72587675738843
C         5.01643395242915    0.53928808122660   -2.38009758710695
C         4.83957743110410   -0.15644424339359   -3.71293634244646
O         6.33877754833356    1.04087160268559   -2.08175603141469
C         3.83079675176054    1.41461598599461   -1.98499062885942
O         2.93454770074921    1.68941820646680   -2.76678735939264
S         1.40851025352509   -0.68054364488767    1.22185606028690
C         1.08012315442937    0.26190096236870    2.69281193090227
O         0.14403112005075   -1.28204601063248    0.84341572087955
O         2.63727675993241   -1.39466004720949    1.53583116093146
H         0.94527471600899    2.05196032987049   -1.35211210060696
H         0.37309384510648    2.20243653179619    0.30213097429576
H        -0.13359557562285    0.82132086050149   -0.59193919435780
H         2.16890860027108   -0.07185517885967   -0.93423582732044
H         4.18429856463196    2.91121801400321   -0.49442529889288
H         5.21020851894471    0.72831157832535    1.07371120233473
H         5.76740198853390   -0.54028428270592   -4.14955407704968
H         4.25041231491117    0.56026204875738   -4.29745022578877
H         4.19190777309159   -1.00194188135780   -3.46271166052403
H         6.84665700202857    0.28868185488381   -1.70468430369831
H         1.40870365573035   -0.42350604063731    3.47498180850339
H         0.01671899933058    0.28577534043283    2.93303745047528
H         1.65054354902235    1.18711896722250    2.80789580344183
