30
 energy: -57.469786256266 gnorm: 0.130894208003 xtb: 6.4.1 (79825abcba525fcdf90b791dcacef51065a7a4e7)
C         0.45943931708353    0.25424189322416   -0.32862109911483
C         1.85334807533684   -0.21549572633401    0.06734173956289
N         2.79155936727726    0.90358776449236    0.23243942002080
C         3.24900439212108    1.68552804472930   -0.89011360293286
C         4.24142839337492    0.84394375501016   -0.09787124413969
S         4.96459216212529   -0.39004472726888   -1.30959983589817
O         4.13526757089858   -1.57069794158797   -1.42478472391518
O         6.36679458509528   -0.63723358426218   -1.03895744411751
C         4.69444576161534    0.78520524725474   -2.65681706152179
C         4.98257450352294    0.31196399406555   -4.06564827554355
O         5.60814041011064    1.81403371308073   -2.21425590459499
C         3.32174713690114    1.36630458644989   -2.33113920884787
O         2.42325103807726    1.63740316892530   -3.11164870432807
S         1.81947558964436   -0.77053792469149    1.84537126806063
C         1.20577775458282    0.51679967873249    2.90644994618778
O         0.82922777357350   -1.83035996804603    1.85614928602564
O         3.16593946815770   -1.10464674924158    2.28561670542627
H         0.39415040149521    0.23053257578299   -1.41787265606764
H         0.22318399406569    1.26816513341574    0.00265794634789
H        -0.25623920685828   -0.45618694144327    0.10049717820692
H         2.17997857234954   -1.03227282849492   -0.56693289909988
H         3.12219559677286    2.74832605172274   -0.70241957195754
H         4.86401608202960    1.41931772803262    0.57478442631798
H         6.02960730903892    0.06750167700860   -4.27249873100043
H         4.73707950461445    1.12899772728284   -4.75458078851054
H         4.42243536651043   -0.61478183597917   -4.22166412989494
H         6.50942250894911    1.79958229005533   -2.60591363601255
H         0.24548364722073    0.92468219583445    2.58863757612914
H         1.98899716591283    1.26202609120457    2.76393106713892
H         1.07863614664292    0.01288865092576    3.86799077637112
