30
 energy: -57.474117474423 gnorm: 0.120021081798 xtb: 6.4.1 (79825abcba525fcdf90b791dcacef51065a7a4e7)
C         1.22003872982500    1.88110860292568   -0.53222609596840
C         1.92068741253233    0.57303510106646   -0.18805061739116
N         3.20325301489417    0.85473728296713    0.47188489544738
C         4.30842516677347    1.41444904724080   -0.26712059409554
C         4.44099533300992    0.03523051451904    0.36612413254382
S         4.50047203812133   -1.02411836092098   -1.17926323880885
O         3.18003723057690   -1.37681106101385   -1.65575943270127
O         5.56202791267920   -2.00789092744975   -1.10302723870711
C         5.22529183377366    0.25658738952559   -2.22979400116330
C         5.15561378708281   -0.03171153720267   -3.71431733969334
O         6.56424364649195    0.29453345266078   -1.68669692054435
C         4.43786270356372    1.46752485010127   -1.73823540594310
O         3.93604973123336    2.34571707854303   -2.42157054202446
S         1.03009806508677   -0.28963882949433    1.20236389046824
C         0.83387541435587    0.97814149071623    2.43280317368579
O        -0.24412285911745   -0.80870914542083    0.74317252600619
O         2.07266595359271   -1.18761096700289    1.67681933195197
H         1.49596215880552    2.36345199406977   -1.47164338448692
H         1.53442756529731    2.60282937861430    0.22532357536995
H         0.12490571903376    1.83984276993025   -0.53753583573486
H         1.92599338157959   -0.20185542546576   -0.94675553518049
H         4.79821405264089    2.32855832276367    0.05747171108790
H         4.75775629202169   -0.27928813318008    1.35196223706339
H         6.07459408505736    0.39581434356422   -4.12847125364112
H         4.21762163604325    0.35312911748986   -4.13205926767728
H         5.15338484865196   -1.12376472707812   -3.78041949941784
H         6.79547653209641   -0.64149306605629   -1.49617198042235
H        -0.03288581187087    1.63366484901784    2.34032762835572
H         1.74634769091487    1.57331924235342    2.38521670976313
H         0.76991215852998    0.43005500833472    3.37628713767915
