30
 energy: -57.478338209382 gnorm: 0.141403531750 xtb: 6.4.1 (79825abcba525fcdf90b791dcacef51065a7a4e7)
C         0.93705261484572    2.20188506973595   -0.07957251666400
C         1.84707321061956    0.98538031895120   -0.19092924987765
N         3.15639782543410    1.45234590496374    0.28599602806543
C         4.34469834051840    1.74081184940470   -0.47921056734821
C         4.22205053625987    0.41386645126413    0.25902442693406
S         4.18051648387688   -0.92361141571513   -1.05376172206098
O         2.87266719181811   -1.26672894522979   -1.57027836411191
O         5.06590867787709   -1.99860263717863   -0.65251889730311
C         5.11113335576920    0.14206537933050   -2.17958188570564
C         5.24476793918287   -0.37627962688878   -3.59564724330486
O         6.41751969421334    0.29266536425102   -1.57969799731752
C         4.34848011285513    1.43898539012680   -1.92580533562546
O         3.93944361455977    2.07982109323320   -2.88079407993278
S         1.44482763961588   -0.39552982831724    0.99308674200696
C         1.20584753743978    0.26529055298300    2.62586230293617
O         0.21371171439831   -1.01298214822396    0.53807478929806
O         2.60477969775815   -1.25409251369197    1.18227200871405
H         1.34353729215080    3.02571302423787   -0.66895476785369
H         0.86445591573401    2.61196839323254    0.93045922007065
H        -0.06091468986744    1.92197898124016   -0.43560793059303
H         1.79835945724026    0.58964710587950   -1.19946225912817
H         4.98231701400446    2.48431925058028   -0.00858513300305
H         4.81095983680467    0.21619812490090    1.14516737632554
H         4.23969433254113   -0.37467044766223   -4.02998707223134
H         5.68597757910184   -1.38014051976358   -3.58954112577542
H         5.70512243309379    0.39121220010614   -4.22492037056864
H         6.64229443387064   -0.49913711702379   -1.04263264658859
H         0.84762199736499   -0.52880654839863    3.28208016243257
H         0.42834647302937    1.02931953349340    2.59656221747011
H         2.15158946983824    0.70016259046304    2.95919485314097
