30
 energy: -57.472563905363 gnorm: 0.131577279509 xtb: 6.4.1 (79825abcba525fcdf90b791dcacef51065a7a4e7)
C         0.49033051429299    1.51343340327804   -0.20248580807916
C         1.78183154890484    0.70826348772148   -0.13808033838754
N         2.92108018248356    1.58209039051864    0.17558330933557
C         3.93275302540943    2.03231059666959   -0.74887938471133
C         4.27355658398206    0.97183515971210    0.29038084768852
S         4.61478190952394   -0.53851484560058   -0.76621175840397
O         3.37987314708462   -1.28085300287575   -0.90377353667638
O         5.85509424003066   -1.18511759680491   -0.38667064235478
C         4.85641597300796    0.31303186913355   -2.34281158353611
C         4.67208418374024   -0.59774833107306   -3.53791913980225
O         6.22336617919292    0.77208427934942   -2.24329112625613
C         3.97765548262941    1.54424797165778   -2.14298440891217
O         3.33245205566455    2.04178221557713   -3.05191614815750
S         1.80410506378829   -0.70091318638885    1.08025178129650
C         0.83554283323240   -0.21569988162342    2.48958011647824
O         0.94186231205160   -1.62564933912468    0.36938600499762
O         3.17642326729012   -0.90376229514954    1.52071144714161
H         0.51546983740550    2.15014808477508   -1.08863261459587
H         0.42462514629473    1.99732313185908    0.77482492112013
H        -0.35249641467057    0.83814360170868   -0.38869491481023
H         1.90666393536631    0.09295521545853   -1.02234794220669
H         4.30893746283310    3.04117600484040   -0.60216503086989
H         4.79910765466706    1.04201154250658    1.23378307513693
H         3.60382366431242   -0.76728321524598   -3.70793095096480
H         5.13584364753617   -1.55522224016630   -3.27219222074893
H         5.06156128984751   -0.09680208654546   -4.42916269587114
H         6.64349633725735    0.25728424656059   -1.51914637544467
H        -0.18708460235440    0.04341942855524    2.21276260699683
H         1.18784132440618    0.73933299831290    2.88061036330026
H         1.00383917998673   -0.97306376903259    3.25946865512178
