30
 energy: -57.476034318596 gnorm: 0.128308592617 xtb: 6.4.1 (79825abcba525fcdf90b791dcacef51065a7a4e7)
C         0.55986715980155    1.57694735568330   -0.23378659028878
C         1.77693499793222    0.66111813626546   -0.21318818608099
N         2.96112338034796    1.43260273425285    0.18974503465143
C         3.90506139880486    2.04592996551127   -0.71226504905842
C         4.35248643561112    0.90450625432737    0.19204674148643
S         4.50755021705489   -0.61113327020399   -0.90009420458923
O         3.30854103030635   -1.35349703128463   -1.22607249613792
O         5.67685676969548   -1.34827382371803   -0.46435661603476
C         4.93753567526964    0.40649443057884   -2.33143351052750
C         4.88171176606186   -0.39892303685599   -3.61204556896814
O         6.20938530668287    0.87233045010780   -1.82687269108769
C         3.93846015043533    1.53600584361631   -2.09884791808892
O         3.06090986192948    1.75339569933355   -2.91898927355050
S         1.76889920506945   -0.64821453426836    1.11202559320220
C         1.01884850901021    0.01256688119241    2.58190415104494
O         0.91571446459107   -1.75860369827126    0.73381748840551
O         3.15903284002806   -0.94168418952670    1.42795876201291
H         0.45437963690453    1.94953509980891   -1.25424947033193
H         0.70720169047116    2.42250507653679    0.44217746531897
H        -0.36927162533578    1.00101262615098   -0.15601972291289
H         1.75902269180673    0.08051312968677   -1.12899032564434
H         4.04325209986007    3.09626247718558   -0.47028533470381
H         5.00620276099565    0.97836241257367    1.05131191981431
H         4.49029347213290   -1.39240928511109   -3.36996412741782
H         5.84318211371348   -0.43787638867458   -4.13787570261768
H         4.23712305288211    0.16548755379061   -4.29241363749457
H         6.80363146002411    0.10310124864787   -1.68171075224472
H         1.78357546896108    0.25242395516003    3.32163307673590
H         0.37191265609214   -0.77181580894235    2.97601641996542
H         0.58346376157867    0.99844842308517    2.39988825237006
