30
 energy: -57.470597152564 gnorm: 0.121631983403 xtb: 6.4.1 (79825abcba525fcdf90b791dcacef51065a7a4e7)
C         0.83379500796506    1.87060010438520    0.00681302244870
C         1.89569963709107    0.78875823216179   -0.14284774798484
N         3.19452932014328    1.31112240706153    0.30439116330297
C         4.24855578788995    1.78037760045118   -0.56142614995748
C         4.42970917127867    0.48528708608332    0.22007336555921
S         4.34983550288560   -0.89275179816346   -1.04823600167347
O         2.98666249592378   -1.18309743628543   -1.43868140047967
O         5.30151361903374   -1.97860883458512   -0.92275879251501
C         5.07307939738336    0.25063287419688   -2.24772572389015
C         5.17312439474013   -0.14730293049183   -3.70492129778655
O         6.33170967336186    0.48761456051885   -1.57774377703709
C         4.28433302653224    1.53646528056650   -2.01846996774130
O         3.79435273938053    2.15096670351367   -2.95243575037744
S         1.40558178334597   -0.50247948677234    1.10739137214792
C         1.00391840883024    0.36621805422287    2.60531734270618
O         0.16098617891269   -1.18085666151101    0.79963196211093
O         2.62370067812003   -1.25799382010677    1.35996646455732
H         1.27495884707884    2.76168284089679   -0.44334223195615
H         0.57330809825176    2.02390944655407    1.05669184261135
H        -0.01895264391569    1.60058238229727   -0.62640040646694
H         1.98134914788624    0.31552596303131   -1.11487244198404
H         4.60586063671658    2.75365677021667   -0.23598795120681
H         4.96509147202848    0.44430208198824    1.15965959876930
H         4.31698217398969   -0.81785270315072   -3.83224031137670
H         6.05858436059570   -0.77054490301412   -3.87803979917299
H         5.20874505106463    0.69629525849274   -4.40064243254377
H         6.96237278241982   -0.25581541059136   -1.70220246421670
H         1.79044478338929    1.09515535515930    2.80422510180567
H         1.18303076804634   -0.43043156039762    3.32807237549495
H        -0.02067435240948    0.72661073017462    2.48292913470385
