30
 energy: -57.469076523692 gnorm: 0.131401074797 xtb: 6.4.1 (79825abcba525fcdf90b791dcacef51065a7a4e7)
C         0.53794239207572    1.44101794006203   -0.58092704432779
C         1.71755535987855    0.55797156796141   -0.19470959733733
N         2.95091419359999    1.22320338379961    0.24816554853513
C         3.93246696754086    1.74916664574301   -0.66874680997536
C         4.28910545931515    0.57227141400576    0.23044376285453
S         4.72999613085060   -0.74662818877882   -1.02657615180006
O         3.47348361835396   -1.35854029294897   -1.40304489853011
O         5.90352355229436   -1.53264681989545   -0.70172333437531
C         5.14299782448501    0.53787589665340   -2.23018102728748
C         5.19111368538438   -0.06787858774421   -3.61673330322363
O         6.35618744589371    1.19369971036308   -1.79745436082910
C         3.93352788024837    1.46128452810643   -2.11818564083775
O         3.05815670102209    1.68562072795278   -2.93878496795774
S         1.38378778257179   -0.55567367214727    1.26096951099014
C         1.32578527114978    0.34885742359680    2.79009027323362
O         0.10305739213331   -1.22085923896315    1.11541025942356
O         2.55483420699728   -1.41240325753217    1.37531293114758
H         0.64609509600407    1.70903443293859   -1.63343067262064
H         0.51817723981338    2.40758172678398   -0.07203951741140
H        -0.32223775440280    0.76906952971199   -0.48283102510972
H         1.87038765191218   -0.07244060103103   -1.06381222726460
H         4.30265771292377    2.72707496598904   -0.37293714969375
H         4.91150931356382    0.83144624987993    1.07695319018388
H         4.61931073332315   -0.99971844656461   -3.55721446044215
H         6.20320033813014   -0.42876332569300   -3.83555454622808
H         4.78194653318466    0.54154254161484   -4.42799328734731
H         6.96627644578801    0.50785134403733   -1.44628848189268
H         2.00503107375355    1.20212607745729    2.78032468153958
H         1.69244633368545   -0.36036367432643    3.53283638222341
H         0.28289093373502    0.59651604982186    3.00383939312666
