30
 energy: -57.472908084485 gnorm: 0.143272034140 xtb: 6.4.1 (79825abcba525fcdf90b791dcacef51065a7a4e7)
C         0.69699885740808    1.85289974558275   -0.09913708756458
C         1.79825819950158    0.80296981167742   -0.17191500363617
N         3.10470297103737    1.28890553526624    0.29382533007791
C         4.27397439060075    1.71261588984585   -0.43698635122267
C         4.27080374823452    0.36449381274576    0.27250239107908
S         4.29944710595119   -0.80902086600033   -1.18901137685722
O         3.08552720863843   -1.27162099670220   -1.82728126499161
O         5.30428547173946   -1.81782813655429   -0.91858760927876
C         5.19085901401725    0.33399987333888   -2.26978620925225
C         5.37186265284579   -0.06750316758665   -3.71816938851704
O         6.46486163807956    0.42401503400083   -1.59302858338350
C         4.32138601047437    1.53297328888092   -1.90301180159240
O         3.63285030026497    2.12512814667176   -2.71864404048540
S         1.43952406014556   -0.43699001659947    1.17137113047733
C         1.22508174502372    0.39540815475284    2.72728850503965
O         0.17364026699214   -1.04953638343087    0.81604756396683
O         2.46395922077087   -1.46853347081985    1.24108792340883
H         0.77888002926678    2.44220918799487   -1.01418002838166
H         0.72168694543946    2.55776184014505    0.73522652912484
H        -0.23038367515572    1.28246325457958    0.02580779258585
H         1.75971242116377    0.20046977024108   -1.07281708392141
H         4.70718506107225    2.58601587950235    0.04296166971543
H         4.81791027099939   -0.00559009760510    1.12973549130218
H         4.62767927844672   -0.82219947900833   -3.99285323266735
H         6.25031005306310   -0.72041457349273   -3.78507816564287
H         5.44388718420316    0.84088759546744   -4.32363889381369
H         6.68500042532171   -0.49531484628812   -1.32416889970379
H         1.34857619456764   -0.42141274184162    3.43939128327666
H         0.19410341717017    0.74681238425004    2.77930233093686
H         1.89654077442996    1.22813638167292    2.95169561854283
