30
 energy: -57.469940501711 gnorm: 0.129800020608 xtb: 6.4.1 (79825abcba525fcdf90b791dcacef51065a7a4e7)
C         0.32718284488909    1.36864062649910   -0.14217892677480
C         1.65458905314273    0.62647591057106   -0.22939087406128
N         2.82014015623999    1.43878582020482    0.14675904778293
C         3.85260815694011    1.90886633715626   -0.74422130158219
C         4.15106130970936    0.77841085116979    0.23241250044610
S         4.51756165429904   -0.68274293485752   -0.88324279019882
O         3.22681399399532   -1.17897613810219   -1.31069094989132
O         5.54943763772763   -1.61697936090554   -0.47956528786499
C         5.06870214641507    0.34667771976762   -2.26372209487529
C         5.01332825217844   -0.31327831330070   -3.62503492082380
O         6.32420550742614    0.94178436144929   -1.86529306071480
C         4.04827819077757    1.47461001786285   -2.14310821842765
O         3.60147752691442    2.03267087404453   -3.13251309192689
S         1.67996934406912   -0.64575739564720    1.13126575225362
C         1.34677739706258    0.27638884699084    2.61395942673901
O         0.54830060961072   -1.52149805478922    0.89391824453411
O         3.02361740169488   -1.19352691945488    1.24514364032591
H         0.12100945356816    1.70042423520794   -1.16134814661809
H         0.56485855368500    2.24148782612684    0.47039820782245
H        -0.53283697045710    0.86459480537177    0.31317928258937
H         1.77857522149763    0.04186108624093   -1.13436024781428
H         4.06542618470358    2.95867891539209   -0.56132472489361
H         4.86982377249401    1.04872807523127    0.99493816450761
H         4.43106892292515    0.34700147521255   -4.27605819663863
H         4.75922515468715   -1.36086918743778   -3.42397547807589
H         6.05175023058122   -0.34258540312353   -3.96821930637121
H         6.79807188586015    0.20617122396821   -1.41781343966306
H         2.01716749685632    1.12986153725755    2.72212182351704
H         1.59376662850350   -0.43627331034117    3.40149714146923
H         0.27359815090693    0.45427184713683    2.72024218398319
