30
 energy: -57.467903221684 gnorm: 0.137889133897 xtb: 6.4.1 (79825abcba525fcdf90b791dcacef51065a7a4e7)
C         0.57875635743633    1.65072393540464   -0.09282305670991
C         1.75173535528735    0.67885645271826   -0.08889135461452
N         2.93594522091086    1.49623650061006    0.21007791448984
C         3.88107676986248    1.99064407820527   -0.76105491635781
C         4.27562510423894    0.84950554677024    0.16789693321331
S         4.55979721839652   -0.62700580173667   -0.95154054113159
O         3.35187248007159   -1.33257948583876   -1.32312153261047
O         5.70298874947146   -1.42996811102320   -0.56568317779709
C         5.03431840499902    0.49137219376444   -2.29066194848829
C         5.10591233313329   -0.27097025332985   -3.59660572597061
O         6.21265734075889    1.28121826449388   -2.01344932648256
C         3.81940461191811    1.39716539582026   -2.11299046669413
O         2.96054903409850    1.47009808752532   -2.97730095191843
S         1.60288926889212   -0.72515846145096    1.12650780666087
C         1.27945489559184   -0.06279021280260    2.74403975744612
O         0.50947276712792   -1.56322637228249    0.67262213965777
O         2.95880657534500   -1.23903390341371    1.25232520520892
H         0.56633801786159    2.39766920667368   -0.88856942311504
H         0.79478777251633    2.07718432628320    0.88955400299351
H        -0.29982845369044    0.99626047200081   -0.12134817973846
H         1.87512953727477    0.10581623909665   -1.00131416479186
H         4.21038915486523    3.02344849624336   -0.68543983496812
H         4.89377436100831    0.95233852212129    1.05019691946595
H         6.03539243673913   -0.10009807447272   -4.14950360659077
H         4.27131363438271    0.03334357406640   -4.23947276465383
H         5.04437238862660   -1.32818936405869   -3.32191459017241
H         6.78008574366918    0.77250229868086   -1.39284710482797
H         0.29672438945723    0.19935290592015    3.13781553071122
H         1.93988309355045    0.80490206229717    2.75120870888792
H         1.77491092341993   -0.75866964697579    3.42589547370782
