30
 energy: -57.474247567130 gnorm: 0.121335271893 xtb: 6.4.1 (79825abcba525fcdf90b791dcacef51065a7a4e7)
C         0.48854598687108    1.50068769990781   -0.35388831032948
C         1.74378466926563    0.66005635742660   -0.15860281000994
N         2.94875996566547    1.41094833228898    0.22092492586707
C         3.91710376700760    1.86253385853124   -0.74819459500941
C         4.27488153246849    0.73558752482406    0.21243255321928
S         4.61404806147759   -0.69528942530763   -0.95012360421232
O         3.40928350401130   -1.38450590365459   -1.36062555933588
O         5.79222113830348   -1.43916242082638   -0.55127220764209
C         5.08044864134448    0.38477798556671   -2.32311694895635
C         5.05481938539998   -0.35087749693599   -3.64596803525894
O         6.32326879730034    1.00293125744550   -1.92004016658458
C         3.97640541523460    1.42497616665345   -2.15843446974672
O         3.34603230920324    1.99148033922426   -3.03689193735301
S         1.51728100343057   -0.58165414383619    1.21160130848192
C         1.18033207049455    0.20068992784701    2.77177894824332
O         0.39592342729468   -1.45133767150187    0.91137237316343
O         2.83464622735214   -1.16359403279833    1.42208779193667
H         0.73732455586659    2.24560324241746   -1.11184859076768
H        -0.02323993376800    1.97893888989672    0.48453502498275
H        -0.34854231663798    0.99033893063435   -0.84365833593270
H         1.92318087247517    0.02598402917644   -1.01993080437880
H         4.36671886454121    2.81970608821587   -0.49816117426384
H         4.98094986230316    0.79126590656839    1.03066459470780
H         4.50321018511481   -1.27308395764310   -3.43599383404282
H         6.05493984404973   -0.58787180074018   -4.02811027512191
H         4.42488844244614    0.18169284246462   -4.36465466653853
H         6.76751259434028    0.35204058369631   -1.33275588831237
H         2.17396200616705    0.51928545932917    3.08916524487858
H         0.87568795490985   -0.65519470700198    3.37490425677654
H         0.36303451844021    0.92471255892652    2.82145813948632
