30
 energy: -57.473043903969 gnorm: 0.133182947140 xtb: 6.4.1 (79825abcba525fcdf90b791dcacef51065a7a4e7)
C         0.35540713238803    1.20845259593719   -0.34339583047445
C         1.61921257136145    0.36477178348556   -0.23653081261475
N         2.81558671231132    1.11092060236103    0.17795244465644
C         3.75845301532718    1.82976858024415   -0.64367555302488
C         4.22526372335894    0.63385524014882    0.17650522756761
S         4.64983372424277   -0.64368675525889   -1.12795113151551
O         3.53760294891571   -1.51943244637022   -1.42961490662281
O         5.86802202822305   -1.34379480124344   -0.77244129086298
C         5.09427097749336    0.60810630844663   -2.35460327816528
C         5.12076350148010   -0.04738102667781   -3.71894023899739
O         6.27982983918059    1.08309585255313   -1.67783048155342
C         4.01459699432519    1.65281191185895   -2.08826079428438
O         3.34792539312733    2.16417860582443   -2.97371990318666
S         1.49373871817224   -0.69302301401794    1.29184566934429
C         1.60680743704617    0.42721290972540    2.66735940578414
O         0.18529028611764   -1.30565148057465    1.42060408246249
O         2.66463676311784   -1.55317567515697    1.37870702880660
H         0.21529474686589    1.61896885761218   -1.34496392366502
H         0.43289461107690    2.07013893696967    0.32375862006366
H        -0.47250455133767    0.49136902689414   -0.30596891869903
H         1.76986085620113   -0.25285283602196   -1.11514424073937
H         4.00238352505469    2.81745310202733   -0.26180342750294
H         4.80901933857638    0.73336330569905    1.08229978933273
H         6.10714452399314   -0.52170417876427   -3.74888447130273
H         5.01840393619445    0.67264364459701   -4.53962709503155
H         4.32422891599111   -0.78698419503534   -3.84333654500818
H         6.86456851602698    0.33528797641583   -1.42331505150679
H         0.86316641961713    0.14725379881287    3.41445950372670
H         1.26713857090845    1.36985491118479    2.23705974103818
H         2.60288019044096    0.49249024937563    3.11258970508672
