30
 energy: -57.470712749571 gnorm: 0.137202318390 xtb: 6.4.1 (79825abcba525fcdf90b791dcacef51065a7a4e7)
C         0.68550710991033    1.73694131445700   -0.23302312425893
C         1.85537022135965    0.76217577700353   -0.19210828243674
N         3.06934887543323    1.44925709179592    0.27051560749708
C         3.98668564397318    1.97312655030168   -0.71176007507102
C         4.43097403004365    0.85094052490375    0.21782232322110
S         4.58574022450386   -0.66783582328586   -0.86999459093183
O         3.32990928629817   -1.36857794751761   -1.03381754536119
O         5.74599245548466   -1.46191157944640   -0.51817118873965
C         5.00132512871329    0.38759253074154   -2.27802371667833
C         4.85147765762414   -0.52744414334726   -3.47470014298708
O         6.26050151931626    1.02732592465634   -1.97077413884478
C         3.96372016008555    1.49346590797047   -2.10931093660924
O         3.07661243468231    1.71822658392647   -2.91709012413414
S         1.64650956083487   -0.59000772159293    1.07224340462018
C         0.74431761925478   -0.09272580337501    2.52086740521716
O         0.83909621093738   -1.62626616014795    0.45727852908176
O         2.98223174862886   -0.95669038453268    1.51923310294696
H         0.63955260787739    2.29024748829381   -1.17272211682261
H         0.66458399728890    2.43044852603559    0.61090382692089
H        -0.21613428124104    1.11831130567809   -0.15962630272438
H         1.99019963807993    0.27994200205385   -1.15407928503281
H         4.33835957522992    2.99332501983957   -0.58381566673585
H         5.03426563044937    1.26357492610054    1.01588776168603
H         3.82292890751688   -0.82201138248468   -3.70738929384179
H         5.48901523642456   -1.41960971572486   -3.46956694992139
H         5.17479119446005    0.06434245765892   -4.33621718202127
H         6.91360743747716    0.33072749382016   -1.73814282191570
H         1.48422670315298   -0.28702771531037    3.29824693761975
H        -0.10784036258635   -0.76333170473568    2.63585080337875
H         0.40031459528533    0.94464571749200    2.50766409459668
