30
 energy: -57.476430326520 gnorm: 0.134765309658 xtb: 6.4.1 (79825abcba525fcdf90b791dcacef51065a7a4e7)
C         0.40744849894198    1.26618503230083   -0.32716609329981
C         1.64870578040389    0.38790577954922   -0.23591098642203
N         2.76999909283528    1.26279668720898    0.13437673881124
C         3.77247032861832    1.88938457961427   -0.69221293383008
C         4.15718019524182    0.73043284271444    0.21863626203836
S         4.63292673886135   -0.64903833485553   -0.95809832943678
O         3.47775126930142   -1.39132988379821   -1.41587744928341
O         5.74247762208645   -1.42415699816267   -0.43982316223923
C         5.10369307556968    0.49106027248120   -2.28011953242724
C         5.14189305704769   -0.02615377348954   -3.70237522028424
O         6.33617153664484    1.16028792969797   -1.93038036046278
C         4.01994312824949    1.55142306339813   -2.10935420947727
O         3.45105722902633    2.01762872138965   -3.08352350219657
S         1.51658102928067   -0.72893059041379    1.24929194412079
C         1.58545729108640    0.29010029163533    2.70414012272377
O         0.15385282340129   -1.21919743769533    1.16842215680117
O         2.59667590377120   -1.69997524318430    1.34351016951337
H         0.11641190702488    1.62084478843485   -1.31752355135894
H         0.63784805449282    2.14397764301596    0.28110925852264
H        -0.42086768521932    0.69810037554125    0.11126235148387
H         1.83842885540117   -0.28670957205326   -1.06356784385521
H         4.09014291136921    2.87671491996802   -0.36800287440102
H         4.71633009254380    0.84823973453372    1.13766255515663
H         6.05244854829111   -0.52616054310845   -4.04836446598083
H         4.94501972021036    0.81998255982728   -4.37150459294632
H         4.35890809245371   -0.78905528386472   -3.74562407496354
H         7.05338996908942    0.48975374472058   -1.97391965972344
H         2.57105375054002    0.26222629376222    3.17035925791263
H         0.79450335621625    0.13181047301867    3.43792680082068
H         1.53802042857974    1.31635953347606    2.33105327898182
