30
 energy: -57.460646892876 gnorm: 0.131923640181 xtb: 6.4.1 (79825abcba525fcdf90b791dcacef51065a7a4e7)
C         0.12450080050599    0.56767819795572    0.31423135204343
C         1.57057604242821    0.22623353961839   -0.02148208095396
N         2.48559639063661    1.37617968647472   -0.03588392567071
C         3.14855313987623    1.96106475740567   -1.17571252994673
C         3.96907891655653    1.27210177494479   -0.09271460156030
S         4.50053663272953   -0.29243195400587   -0.97802058476969
O         3.27915335730170   -0.97040240369606   -1.35692400320517
O         5.66916354855009   -1.07161076529519   -0.62065135917325
C         4.81542175445278    0.74360151777140   -2.42600810081118
C         5.28852255056036   -0.15681266520421   -3.54726221268420
O         5.70568441357598    1.76993859347567   -1.93280337032469
C         3.41490665601396    1.34542154650520   -2.49244690737502
O         2.71435204817964    1.18708070880669   -3.47943024281223
S         2.22082033953880   -0.82968693214375    1.36877778013693
C         1.88351213773606    0.17565381710229    2.79540466024483
O         1.43529275883958   -2.04729673716919    1.43437084645777
O         3.65403849687022   -1.07765932861024    1.31581426580232
H        -0.52128559315273    0.53839598672230   -0.56519813429073
H        -0.07341517557360    1.45209380697541    0.92434693674455
H        -0.19756717712959   -0.36001493362028    0.80075478466833
H         1.61118658068658   -0.48184235224752   -0.84190630369489
H         3.03186762243000    3.01619615449776   -1.40794408124291
H         4.70701552331766    1.61381223015762    0.62130217630975
H         5.99377781918470   -0.83342587570645   -3.05366703403685
H         5.74110784694569    0.45918600985201   -4.33348870975482
H         4.43318010863445   -0.66170469659657   -4.00598650520392
H         6.57232174190517    1.30690182565154   -1.95403392763516
H         0.79736354632068    0.09470524015105    2.85255523420271
H         2.27336814902023    1.13108633627498    2.44288845531443
H         2.40536914169770   -0.16701793577956    3.69256318444912
