30
 energy: -57.471477237001 gnorm: 0.131239427389 xtb: 6.4.1 (79825abcba525fcdf90b791dcacef51065a7a4e7)
C         0.54393564379673    1.29099075658707   -0.57451079396703
C         1.75016463237296    0.40138428313662   -0.30241965767032
N         2.94421875268536    1.09375096439165    0.20226702759632
C         3.98544559254843    1.79520298106552   -0.50810158801652
C         4.33172732312558    0.57093169448343    0.32979235375212
S         4.68516162728085   -0.69767108136086   -1.00426568093974
O         3.72611362440821   -1.75282246782519   -1.25300515517951
O         6.01654770796761   -1.17651907699402   -0.69020045803455
C         4.94624238082781    0.48383296454487   -2.34779493910178
C         4.95974659664081   -0.14375306963095   -3.72537769512382
O         6.22575432966020    0.98584875317300   -1.90056387892840
C         3.96402135008936    1.58904626962363   -1.97124558518328
O         3.23678326984185    2.18423528614663   -2.75025749691596
S         1.47338356271801   -0.60670580194531    1.23957736108098
C         1.24513597302213    0.59622480257249    2.52822475198605
O         0.20123803481791   -1.28213814102144    1.06821056761949
O         2.62895692609186   -1.40566874672195    1.61999574004020
H         0.59549538523033    1.80187924755718   -1.53764539988050
H         0.60195342202439    2.04121560345968    0.21757464230264
H        -0.37311442097198    0.69183302864041   -0.54169968777081
H         1.97026607436242   -0.35950102782991   -1.04317976165751
H         4.04103513862381    2.83592008276932   -0.20042183537478
H         4.76017531122672    0.33850560293787    1.29599453838997
H         3.91886343342401   -0.16294008507210   -4.06452475794723
H         5.21125314954993   -1.20952242452526   -3.66775773886233
H         5.61487106651651    0.48682977605577   -4.33376230780184
H         6.82801312066304    0.21007768861199   -1.86344719929735
H         2.24250459940269    0.91680243338608    2.83157838821215
H         0.63233872426645    0.10181437946437    3.28264144614123
H         0.78729953603080    1.46591038950966    2.05001469634386
