30
 energy: -57.477778868173 gnorm: 0.129315816167 xtb: 6.4.1 (79825abcba525fcdf90b791dcacef51065a7a4e7)
C         0.92645308037432    1.72848408230109   -0.43299563227992
C         1.87002447874395    0.55963284579298   -0.18024796584374
N         3.10629380976926    1.10410074883776    0.39857723914017
C         4.22644195501020    1.59214796139789   -0.36816229423060
C         4.31445300620796    0.23826213252038    0.32470441883716
S         4.54884479941985   -0.95247584268803   -1.10399546785634
O         3.32125020378991   -1.59149395807283   -1.52785415611118
O         5.68818323197303   -1.82415476274928   -0.89758556040068
C         5.07714770863320    0.31983560774749   -2.27502298616144
C         4.99649368596950    0.07950869266175   -3.76751042347186
O         6.44788760245681    0.61205090335823   -1.92165537797188
C         4.26848263574503    1.53994327116666   -1.84439311106672
O         4.03849548878377    2.47333774971766   -2.59663333154985
S         1.15430920288776   -0.45912815705219    1.20556797907299
C         1.07228442025447    0.64326649402601    2.59759853506271
O        -0.17988258248282   -0.96032534560451    0.93600662005384
O         2.21001570882315   -1.39263079605740    1.56952721477156
H         1.21202115767148    2.29072182837974   -1.32385663407824
H         0.95974684852052    2.41473299915853    0.41644929002631
H        -0.01850181471097    1.20726191583589   -0.62387537951889
H         1.93680480215981   -0.17604176901333   -0.97425038544261
H         4.65917339686522    2.47787928040707    0.08908245594089
H         4.94029599817834    0.10983150921466    1.19818167665094
H         4.98466399314647   -0.98919662338692   -4.00532471365004
H         5.92772252087289    0.43225039860193   -4.22666842325914
H         4.15045890965641    0.53121430917647   -4.29395303764700
H         6.88530725007419   -0.25921736465991   -1.79727812631849
H         0.20183071813652    1.29040581983708    2.48332400506935
H         1.96929623987256    1.26106660450881    2.65050885320959
H         1.06397030738356   -0.01617582956740    3.46921701683784
