30
 energy: -57.467507101896 gnorm: 0.149955713407 xtb: 6.4.1 (79825abcba525fcdf90b791dcacef51065a7a4e7)
C         0.74030221592791    1.66547735246216   -0.15935856267364
C         1.81146063663441    0.58254116189555   -0.17640063753230
N         3.02174120414859    1.27647347871003    0.28568665787713
C         3.99062856230616    1.90085528031858   -0.58161728448189
C         4.39007640433106    0.69208734894725    0.25512555753239
S         4.63166260257000   -0.68510290980998   -0.99345880021968
O         3.59544289592623   -1.64015248587676   -1.32378871748500
O         5.91170222956440   -1.26923507179710   -0.64588229442769
C         5.02110431136174    0.49160724564903   -2.30984559970019
C         4.95259940445088   -0.20379512388496   -3.65279141760029
O         6.26950618006735    1.16275642088110   -2.02658271808201
C         3.87247375067989    1.44053492179238   -1.98086519935889
O         2.99635488024779    1.77876612915517   -2.76060879774552
S         1.47690987227784   -0.66227254273155    1.16863571751953
C         1.19854800251399    0.19276559749117    2.70199006319491
O         0.19753601373414   -1.27203715767015    0.85989745924696
O         2.67286373461361   -1.49070313596579    1.21114266176682
H         0.66426146368483    2.05169169600732   -1.17737134143186
H         0.89063609058866    2.44468521839526    0.59153261084128
H        -0.13318508149874    1.01261256769784   -0.05057027438362
H         1.89507740532404   -0.05886810962649   -1.04687118341909
H         4.22913108567699    2.95135510070646   -0.43873293889761
H         4.95866007245434    0.76645650744362    1.17290452311814
H         4.83730737111120   -1.28871859590391   -3.56072927693200
H         5.87157144575692   -0.01067815096568   -4.21903884136768
H         4.15656255181812    0.20013942634308   -4.28533931399011
H         6.89936435480189    0.42109384468336   -1.88827383708789
H         0.11703230619836    0.32998504506921    2.73411862580032
H         1.71971933984633    1.12348158967117    2.47559469680022
H         1.66884782458917   -0.48055763278660    3.42317380211107
