30
 energy: -57.474208935227 gnorm: 0.130854967429 xtb: 6.4.1 (79825abcba525fcdf90b791dcacef51065a7a4e7)
C         1.03756543458712    2.16668084915892   -0.00987035991523
C         1.95159581219851    0.94874603741893   -0.04993086647871
N         3.29421477756625    1.31715552964907    0.42070119030162
C         4.38149613646191    1.60834588204232   -0.48142899888268
C         4.42668747525801    0.35247535762802    0.37971211879220
S         4.30062874645894   -0.90384434935676   -1.00583822748776
O         2.92060025509279   -1.15457250261204   -1.36311345918907
O         5.22602642611258   -2.00994285380482   -0.86194073526368
C         5.08562307499648    0.17216184054486   -2.22861393118770
C         5.07373870663425   -0.32953608181792   -3.65687819358096
O         6.47356128020705    0.36531603639593   -1.87434666446063
C         4.32101565598585    1.46298410472001   -1.95076975581151
O         3.75729948491202    2.12298427749869   -2.80902876546733
S         1.36829436884954   -0.44358375814568    1.04175834545510
C         0.70167152400420    0.36143976850680    2.47956994819939
O         0.29145338188307   -1.17859375422342    0.40606701902931
O         2.61625913754631   -1.06350515209922    1.46210478617072
H         1.37296499440954    2.77668667995718   -0.85052115231523
H         1.23775045868871    2.71029771883670    0.91641759842642
H         0.01292366757793    1.82996172562379   -0.20423306318086
H         1.98284097097804    0.55552751101489   -1.06013853219672
H         4.97599746167963    2.49240767328677   -0.26729779464297
H         5.14410952227481    0.15928851152377    1.16655445771783
H         5.62550687256980    0.32936535970832   -4.33527882180832
H         4.05415855565120   -0.50407984370433   -4.02078850378917
H         5.67297569616552   -1.24349184604993   -3.70742049644165
H         6.91308349417468   -0.45612483856610   -1.56134641501455
H         0.87003719929423   -0.32586653959687    3.30951010325448
H        -0.36440857351465    0.58039887644245    2.41147576719952
H         1.27072671005216    1.22345939608347    2.83699187974503
