30
 energy: -57.474928677072 gnorm: 0.139758047094 xtb: 6.4.1 (79825abcba525fcdf90b791dcacef51065a7a4e7)
C         0.61929360899718    1.48587496987833   -0.39710075483933
C         1.81822236839270    0.56407893437320   -0.21466304951818
N         2.95557227270532    1.40275231139081    0.18895520532663
C         3.97752917720993    1.97679404967217   -0.65181348755322
C         4.31028038244645    0.78897883517668    0.24216029076078
S         4.55738999901819   -0.66143493928527   -0.91939743140510
O         3.36412404248788   -1.42359045184312   -1.21977083123760
O         5.70969923067838   -1.41428270934412   -0.46560790291378
C         4.95532617875509    0.39024223619667   -2.33530977058464
C         4.94527650281291   -0.40563341454624   -3.62304491205242
O         6.24833537298114    0.96004056166939   -2.03093599955442
C         4.01270494412557    1.56014935810603   -2.06917717538338
O         3.37871410719714    2.19966024128889   -2.89323190052530
S         1.59129593194360   -0.68849227117129    1.14554942459214
C         1.14271172700629    0.23330029980011    2.59772770743075
O         0.51932826691398   -1.56832940834907    0.72045931314174
O         2.87675754966408   -1.24865377953319    1.53569970411594
H         0.24318769749669    1.74665629806511   -1.38797469751332
H         0.66976488570751    2.39395208560979    0.20825147661662
H        -0.21367657786597    0.96762832134655    0.09139536041287
H         1.86947069593100   -0.03145087252367   -1.11955779218528
H         4.23710602287066    2.99714461965904   -0.38282706650487
H         4.96424184844882    0.80785112769373    1.10420117498374
H         3.92019338648685   -0.34847090142711   -4.00352314150048
H         5.23629907442120   -1.45275410430258   -3.47715437918405
H         5.60558423850800    0.07348216115711   -4.35201445383845
H         6.72436863886912    0.27173459350361   -1.51562903492295
H         2.01728233305373    0.81687269276906    2.88774001799096
H         0.98328604414626   -0.41008804650280    3.46360389416473
H         0.20195050728580    0.77194163011174    2.45813571094278
