30
 energy: -57.475960724509 gnorm: 0.135861409215 xtb: 6.4.1 (79825abcba525fcdf90b791dcacef51065a7a4e7)
C         0.62506594073192    1.73237177087725   -0.13759219374561
C         1.76076370701878    0.71811062579803   -0.18102632514652
N         2.94547122696741    1.48390713167993    0.23112575510258
C         3.97319059030380    1.93785133888979   -0.67360592466379
C         4.27041893231669    0.81044452381791    0.30691774698664
S         4.60750397894100   -0.64376379330732   -0.82693914752582
O         3.46081154062629   -1.46078113107534   -1.16245065326075
O         5.85332773284501   -1.22200367509989   -0.36424802135264
C         4.93580093669228    0.35274532220945   -2.29947998845280
C         4.75543655271740   -0.53058347015929   -3.51561311305715
O         6.26143911741930    0.88302465879575   -2.07437215019999
C         3.96340862374583    1.50933570944307   -2.08782959693178
O         3.26453300714144    1.96337420655817   -2.97968534205002
S         1.69818513892828   -0.64804262393731    1.08401020675779
C         0.79121274685775    0.00940553111887    2.46419646289096
O         0.87615033266885   -1.65647105603033    0.44271422166276
O         3.06412986667278   -0.97867778238940    1.46254041662846
H         0.55020322361763    2.19340561178078   -1.12406931030283
H         0.79430844826124    2.56865537238115    0.54474894857783
H        -0.31557155529684    1.18731269982714    0.00082415753045
H         1.81654339104710    0.16863899478034   -1.11434630684334
H         4.49264489774051    2.88728487748343   -0.57566574304705
H         4.74651975646332    0.83876527376930    1.27834051502599
H         3.71056929775799   -0.74073516311557   -3.76644237164630
H         5.21244038498551   -1.52603743421252   -3.46404930501042
H         5.17007396794550    0.03874031004429   -4.35281134553804
H         6.68325514184393    0.06187011655832   -1.73719192665913
H         1.45957496780510   -0.01353656401584    3.32576667183105
H        -0.01237787667989   -0.70786094832127    2.63413053942178
H         0.31408203931941    0.96588827825309    2.23585653412995
