30
 energy: -57.478163010432 gnorm: 0.127039362181 xtb: 6.4.1 (79825abcba525fcdf90b791dcacef51065a7a4e7)
C         0.89577277675072    2.00120837637562   -0.20564595260104
C         1.89003884488735    0.84716538926949   -0.19921272549059
N         3.14096593991336    1.36209491681797    0.37513430864957
C         4.24714319403585    1.73168499127193   -0.47373959735445
C         4.30954019811822    0.44148732599911    0.33392004247580
S         4.42171176565054   -0.86686025758914   -1.00384815261311
O         3.14167520545100   -1.27072809462989   -1.54549935375049
O         5.43153382874708   -1.86254677356662   -0.70486816692683
C         5.13080212358897    0.31019026555545   -2.17897740783086
C         5.16933032769876   -0.21987119530578   -3.59648623385363
O         6.38523658721569    0.74085012439841   -1.60442317752480
C         4.13550101442867    1.43669698374940   -1.91743902251430
O         3.22490102551166    1.64691567811725   -2.70267817248844
S         1.38086358806723   -0.49906890812515    0.98358141631917
C         1.38555669413541    0.33264967715619    2.55455985919951
O         0.03693672376510   -0.92401869889651    0.64122498771727
O         2.41176201899396   -1.51794130085461    1.11608499734329
H         1.16657913998371    2.64927236824853   -1.04109236380421
H         1.00566800820007    2.56639122930780    0.72284427533081
H        -0.16892154430733    1.75341593217079   -0.28357079823227
H         1.93141488449861    0.37704846755158   -1.17563207097590
H         4.71655872740067    2.66015955775824   -0.15999902424232
H         4.85862881779765    0.30201447286252    1.25597495468612
H         4.15350441690181   -0.06709688559010   -3.97541150383597
H         5.52435417282313   -1.24978814805751   -3.47131010667797
H         5.87624016720130    0.38541861270741   -4.17168825063596
H         7.14436038324278    0.11815062957463   -1.64790242810944
H         0.39152779551420    0.73323372717174    2.75698661296610
H         2.22431916074566    1.01928198805096    2.67338863279092
H         1.46883043423414   -0.46625850856360    3.29581776008193
