30
 energy: -57.482119817290 gnorm: 0.125443940760 xtb: 6.4.1 (79825abcba525fcdf90b791dcacef51065a7a4e7)
C         0.24056930437401    0.80315209987666   -0.04596264791540
C         1.68318734102845    0.31722564710804   -0.10209022272354
N         2.62801402483750    1.43425888874634    0.03713911223600
C         3.36543951697150    2.01926818856010   -1.05592063035168
C         4.09392598456667    1.18233544432335   -0.01204873429650
S         4.62538587793660   -0.38923833373847   -0.88479489053267
O         3.70164330048574   -1.47416609804764   -1.13900002080270
O         5.99539340311371   -0.67294190026063   -0.50649218973552
C         4.72484836275425    0.59121634303617   -2.40071100778344
C         4.98599221947170   -0.21988807053932   -3.65198810083345
O         5.74396666461173    1.56317836162168   -2.07532812192194
C         3.40683794350078    1.35956408825792   -2.37759630912501
O         2.54876424908120    1.30959141103336   -3.24431253993345
S         2.07151726087597   -0.81164756607660    1.32810324233262
C         1.56766392193715    0.12905000526411    2.74971183493036
O         1.23476426507721   -1.98384372855055    1.15567863139497
O         3.51514156262788   -0.95462008407021    1.44607553321261
H         0.06568208877621    1.30631278677073   -0.99861028196717
H         0.21505710805093    1.52184485613525    0.77649256218108
H        -0.40676015980138   -0.05978688096476    0.14729431807439
H         1.83898521940166   -0.29299224670499   -0.98497060760324
H         3.36654552825991    3.09973309514955   -0.93997453151552
H         4.70939881729286    1.30508328190716    0.86957612067897
H         3.97847908210832   -0.39028481568006   -4.04531857034118
H         5.48233884603635   -1.18550914451945   -3.49818338483696
H         5.64309549278468    0.25971926710212   -4.38352533349193
H         6.50934991394554    0.95895552466138   -1.95278307418143
H         2.01480944090851    1.11943589403011    2.65625436217015
H         1.88924539853252   -0.36783363376489    3.66557136909858
H         0.47769208317938    0.13206928495804    2.83097901965149
