30
 energy: -57.474058692954 gnorm: 0.133817976895 xtb: 6.4.1 (79825abcba525fcdf90b791dcacef51065a7a4e7)
C         0.42400895285853    1.16699409775012   -0.41279612807822
C         1.69896680793157    0.35629935796703   -0.21868771813790
N         2.82068138418704    1.24792320074950    0.10782283032809
C         3.72704024954123    1.94742443096764   -0.76968676306448
C         4.25823862321382    0.86703205177405    0.16380006187128
S         4.67764787100884   -0.53965776817457   -1.00208990896014
O         3.53452707251644   -1.40918242978590   -1.18150712105375
O         5.96420377220815   -1.11672348217101   -0.66699241669569
C         4.90479283272606    0.58288328351087   -2.40119411980521
C         5.05379257680623   -0.17922536224782   -3.70072108624449
O         6.05928510689366    1.29456585233204   -1.90135233319319
C         3.68325740762453    1.46646525040440   -2.16629389400464
O         2.71774345101852    1.62393672842543   -2.89634199534146
S         1.69091426564565   -0.73216142832436    1.29319734759598
C         1.55953543286452    0.29386963280778    2.73879444367749
O         0.52021100741676   -1.58727707032320    1.24671307861526
O         3.03933077176967   -1.27958562433199    1.31576732981658
H         0.37320342433523    1.84544600265154   -1.26626876879900
H         0.26425225034505    1.84013111881582    0.43276112947838
H        -0.34798081680206    0.39542615235254   -0.51159936970153
H         1.94717841653144   -0.19778840379474   -1.11729460945568
H         3.88096814141845    2.97971982312537   -0.46716129309935
H         4.63169688097424    0.93044665405136    1.17752779577377
H         5.90500954776177   -0.80953574013725   -3.42329519197320
H         5.42898708107215    0.48660397514312   -4.48706725696368
H         4.15606635623682   -0.73776149090724   -3.98193214335710
H         6.75980251232397    0.63636638590696   -1.69650392380520
H         2.27980391363559   -0.11411502969596    3.44893489004078
H         0.55369275318007    0.16844216128628    3.14085804061379
H         1.79914425403426    1.28996977468912    2.35797401278889
