30
 energy: -57.469875676372 gnorm: 0.141095435247 xtb: 6.4.1 (79825abcba525fcdf90b791dcacef51065a7a4e7)
C         0.66545625400697    1.49407634811614   -0.32457137568742
C         1.71619676239836    0.41825985570109   -0.08170337220673
N         2.94862132733519    1.17280844175906    0.18593752833258
C         3.86541635411607    1.79648326595369   -0.73673707748215
C         4.35391791778200    0.68301206936803    0.18106768122858
S         4.59053568614907   -0.66954891214059   -1.09508688656595
O         3.42478774452983   -1.41049082418067   -1.52755152579968
O         5.72869953722052   -1.48773011032197   -0.72673401348779
C         5.13220768655120    0.49195635199570   -2.37050164385420
C         5.21541403243965    0.02012728440180   -3.80654999955396
O         6.35990410780872    1.08824290311869   -1.89469690886101
C         3.97090130493415    1.46152874736657   -2.17215629506697
O         3.21884221470399    1.86700828631154   -3.04392359147613
S         1.50846634510512   -0.66902258770389    1.41672018950409
C         0.96315345435330    0.33145585253487    2.78106173012256
O         0.47740655050671   -1.64189594885682    1.10953492182760
O         2.81851510602271   -1.18159525245162    1.79015188914085
H         0.80751910932906    1.92112176959676   -1.31892749079193
H         0.78285947266848    2.33125590838878    0.36749046519566
H        -0.31867730267076    1.01731475526017   -0.39686869640081
H         1.79334619100435   -0.35021621639983   -0.84302401902048
H         4.11315261750395    2.85292881290181   -0.67843915281150
H         4.92825010053025    0.68402580486216    1.09827963467620
H         6.15240647446762   -0.41922038429910   -4.16410477979761
H         4.85414855745062    0.81802595811584   -4.46631123382937
H         4.31520361259234   -0.60153513229330   -3.79598246921094
H         6.97927135742886    0.35785087731248   -1.67373143040333
H         1.67535620073703    1.14281564911193    2.93598155353519
H         0.80186462572445   -0.39119579000470    3.58160354692670
H        -0.03205191092970    0.73104782703704    2.57000577643238
