30
 energy: -57.470645681708 gnorm: 0.134681940103 xtb: 6.4.1 (79825abcba525fcdf90b791dcacef51065a7a4e7)
C         0.84559582226435    1.75389600847011   -0.20722133205356
C         1.84034462242358    0.60604705405724   -0.09172575541952
N         3.16961475752570    1.08976646938757    0.30689930597227
C         4.12925251144799    1.71402796865286   -0.57071382572417
C         4.53212870603001    0.49406327068028    0.24794018273942
S         4.64390015664419   -0.81823865055749   -1.08598277542992
O         3.41973410082204   -1.54500426855155   -1.34716862785300
O         5.89601304380059   -1.53439906588684   -0.94509685757947
C         5.06510239828903    0.40870663539526   -2.34549846563453
C         5.13322392448360   -0.04345554281932   -3.78865114939470
O         6.38637231794953    0.84251984109140   -1.95149567026584
C         4.07965822868622    1.53181430486667   -2.03634969362908
O         3.23995709064713    1.86677041644846   -2.85652721656430
S         1.27163217768160   -0.57136148970048    1.23525709799413
C         0.94245712830647    0.43957468472522    2.65982823888396
O         0.02180942653174   -1.18329544452325    0.82609992726281
O         2.41230983387392   -1.40823121539022    1.57718292841148
H         0.81730919676572    2.18754525974598   -1.20844154851108
H         1.07464997227343    2.53941408896479    0.51672498012033
H        -0.20447882858841    1.48005060964606   -0.05425304063607
H         1.83566102776920   -0.01917434992766   -0.97783686305952
H         4.45173075650723    2.67796618229228   -0.18642221749017
H         5.14108651005093    0.45616271622189    1.14173556425452
H         5.66047457457013    0.72831361376112   -4.35891928978870
H         4.06535389536166   -0.14777309053853   -4.01495044932145
H         5.69684939491725   -0.97522886251177   -3.68339221725972
H         6.91318790257840    0.09655988125956   -1.58828344312592
H        -0.09330430035098    0.30061512199528    2.97195982336627
H         1.19993616742274    1.48920170787505    2.51458933207237
H         1.54167797707175    0.13721329006826    3.52247767073091
