30
 energy: -57.476266590994 gnorm: 0.116402737051 xtb: 6.4.1 (79825abcba525fcdf90b791dcacef51065a7a4e7)
C         0.69052357421483    1.12169406165320   -0.59036078386646
C         1.81720888100070    0.17523361393146   -0.19638812250261
N         2.96569430502821    0.99917986658782    0.20602872003006
C         3.95886065154083    1.79926110037295   -0.46799091482448
C         4.37808218146264    0.53470889502594    0.27091266207620
S         4.81698689672494   -0.69815125042251   -1.07124908039496
O         3.81356785814047   -1.67134817332019   -1.44678447129122
O         6.16547507648861   -1.21767739388058   -0.96082497756316
C         4.95158064865436    0.58125790642449   -2.34175392768462
C         4.61266483948107   -0.02348646911904   -3.68756266587889
O         6.27060072461063    1.10526317367862   -2.06827482487438
C         4.04113709871909    1.73862399660978   -1.94220381346481
O         3.33500492384889    2.46049354557778   -2.62796357608704
S         1.35945759002669   -0.72403502497637    1.36962205691642
C         1.05568991656555    0.62873147579224    2.48205142242588
O         0.16949787678115   -1.53073171666947    1.17683722010249
O         2.62198086678434   -1.31309303513222    1.79087656865494
H         0.83077649197316    1.46128958735181   -1.61812424280406
H         0.72265125532191    2.00928594006480    0.04583980695752
H        -0.28114832340347    0.62390001067984   -0.49495543058454
H         2.04786705662734   -0.68332965273780   -0.81750208830145
H         4.06184732678497    2.80942941269252   -0.08094719961546
H         4.83430900004584    0.52995656132042    1.25222340354322
H         5.36473848126215   -0.78152620924242   -3.92961146444210
H         4.68026101985060    0.71116365471699   -4.49883319727828
H         3.67028063732999   -0.56469622853972   -3.56123513543965
H         6.87045972961568    0.37394159473699   -1.80134418568162
H         1.10396996783520    0.43642864789205    3.55453745131924
H         0.14188359682054    1.12342684697775    2.15138363922559
H         1.86409792713805    1.34883662567962    2.33179450179268
