30
 energy: -57.476726207500 gnorm: 0.123117397718 xtb: 6.4.1 (79825abcba525fcdf90b791dcacef51065a7a4e7)
C         0.64020240623657    1.80864404730147   -0.28636910092976
C         1.80030102445834    0.82745162663055   -0.17749214971002
N         3.09562834695678    1.32876623055682    0.30277504651136
C         4.27594226668633    1.72313134168992   -0.42670879907846
C         4.25606980873928    0.39724126548923    0.32324964514021
S         4.32247487139159   -0.91026486067425   -1.01839035817736
O         3.11100877446245   -1.40941048302637   -1.63336383083348
O         5.34862145123101   -1.87584922379104   -0.67899193478558
C         5.04593720682278    0.21718229070567   -2.23274245238644
C         5.07461025627138   -0.09705064863045   -3.71335596189129
O         6.40291255217010    0.39051331594263   -1.76609422323761
C         4.31723586550511    1.51285579009583   -1.88884052094042
O         4.00260754377730    2.45775075128542   -2.59465015206991
S         1.40924128661557   -0.48385192336038    1.08669275000486
C         1.43487193256393    0.44016747504040    2.60500836977253
O         0.08081583836960   -1.06148383707577    1.01214834542032
O         2.56524639662745   -1.36373061056032    0.99794924436157
H         0.82155770326472    2.48333933277075   -1.12493350749263
H         0.45570008956521    2.32322527512464    0.65955255803432
H        -0.26411193013886    1.23949425828120   -0.52994964294481
H         1.85759518320167    0.27765510131443   -1.11052899454288
H         4.72327111701281    2.63292245974817   -0.03552308610696
H         4.68127394118799    0.19973585450392    1.29861083380508
H         4.43717346439996   -0.97664712386412   -3.85050918975747
H         6.10774634825853   -0.23222703197010   -4.05511184489281
H         4.58397188905655    0.76925770052934   -4.16693998901747
H         6.72376728775499   -0.52736822700622   -1.62305662161901
H         1.98008439256750   -0.19433118963151    3.30478865017239
H         0.42762318637278    0.59702261155204    2.99224616798827
H         1.92405093522722    1.38574498908985    2.35754292020724
