30
 energy: -57.472475576353 gnorm: 0.149346580909 xtb: 6.4.1 (79825abcba525fcdf90b791dcacef51065a7a4e7)
C         0.41273880990051    1.46557665424657   -0.13096381579642
C         1.69089994213638    0.63773499029310   -0.16843214115940
N         2.84520521534669    1.48369029537397    0.16591011162448
C         3.85709839661773    1.94609913827244   -0.75227380650933
C         4.18493275231889    0.84028198792569    0.24296994637079
S         4.52404970501069   -0.55758021433365   -0.95909525128853
O         3.38264086772728   -1.25423205186219   -1.51303650724784
O         5.65001137357577   -1.35367581740088   -0.51304215224253
C         5.06430896305957    0.52021626476129   -2.30655972972552
C         5.21948315494378   -0.31444138878273   -3.55997443387481
O         6.30047103017520    1.18297828759065   -1.95750937887613
C         3.84965989392415    1.42775108839755   -2.13611271615651
O         2.90242356832316    1.50502344809806   -2.90211338147811
S         1.67489870264345   -0.68295323077317    1.14539233417659
C         1.43898381010077    0.09669408267278    2.72534338760701
O         0.61458394720206   -1.61183428570076    0.80357034419052
O         2.97696762577337   -1.32979112613272    1.21341428740263
H         0.43434133859660    2.25370030698840   -0.88574071873734
H         0.36570325390404    1.89092411544395    0.87425751353030
H        -0.49278797902477    0.85245616931776   -0.05918717402840
H         1.73933087738744    0.26944524919603   -1.18732060785085
H         4.22190987587412    2.95297775190648   -0.56799879432737
H         4.79568288122442    0.90037901716884    1.13432231484801
H         5.55315742776720   -1.35162626046021   -3.45164321882336
H         5.84534256452476    0.13399385914012   -4.34077258348915
H         4.21355421289238   -0.37467346106055   -3.98592477580862
H         6.76896720576792    0.57633483032475   -1.34235972808746
H         0.38157664802664    0.07982677054228    2.99207023289845
H         1.92063549421208    1.07026787299060    2.62905001911110
H         1.96448845495464   -0.42285043548479    3.53068210025262
