30
 energy: -57.482911234675 gnorm: 0.123607107396 xtb: 6.4.1 (79825abcba525fcdf90b791dcacef51065a7a4e7)
C         1.00348320508954    2.16139652787217   -0.28085974370539
C         1.85101297989957    0.89577500052125   -0.26305495128867
N         3.14668978038005    1.21482283341436    0.35279883786224
C         4.32906178948005    1.59047797111979   -0.38319783310733
C         4.29965383116204    0.27433469726318    0.38343056852972
S         4.40353661371785   -0.98674190717019   -0.99963630192669
O         3.09138629424657   -1.36267380253524   -1.48122282724946
O         5.31428424123517   -2.07472577467413   -0.70408408052431
C         5.09812480790068    0.20658264721860   -2.16698782904530
C         5.06002378790294   -0.22932073270207   -3.61623501355865
O         6.46653496916527    0.26656694574998   -1.70542329895450
C         4.41315685813294    1.53439022241806   -1.85748829691430
O         3.92486237123398    2.34658489244921   -2.62683411983510
S         1.24751233306107   -0.35647973489251    0.97720841910588
C         1.33412105332401    0.39034270659117    2.58795553473488
O        -0.14900656938832   -0.65069613219535    0.71816916768351
O         2.21372601706171   -1.44449876974302    1.00969572645026
H         1.34770522908997    2.79056105744613   -1.10363366563287
H         1.11752664773596    2.62257918727739    0.70296309308018
H        -0.07253418247609    2.00814733203029   -0.42138962038250
H         1.91815280550743    0.33383711378162   -1.18816826682752
H         4.94838009502522    2.38499364679179    0.02428090143820
H         4.82844140456772    0.13223161000427    1.31687944780732
H         5.31001979141715   -1.28713549147066   -3.74797933185673
H         5.75051345673375    0.37535573275433   -4.21626027336066
H         4.07405453351379   -0.06932254255771   -4.06257551317460
H         6.65741383167657   -0.60624915497018   -1.29594636679122
H         1.51988815091937   -0.38740925784491    3.32966308496448
H         0.33729187747329    0.81094511420175    2.72408742604902
H         2.15643665265031    1.10616631596197    2.51020146213730
