30
 energy: -57.478762771650 gnorm: 0.121625522208 xtb: 6.4.1 (79825abcba525fcdf90b791dcacef51065a7a4e7)
C         0.60564444787403    1.26957593589048   -0.37869385858195
C         1.79473195891192    0.35349797754336   -0.11928369064752
N         2.99448067117979    1.08989752902651    0.30281169437475
C         3.91359477337427    1.77701612939600   -0.57120704400157
C         4.38360398280112    0.56250614986638    0.21928262617226
S         4.64300500702921   -0.68809594163216   -1.15282717386905
O         3.44357426199835   -1.35882148906743   -1.60723003525944
O         5.88405615282366   -1.38616812897490   -0.88262626561415
C         5.01598661560505    0.59357281708144   -2.37241552690499
C         5.14813716909004    0.02160679947584   -3.76782656098805
O         6.28351652050703    1.05117773218015   -1.84977608739730
C         3.87702790535085    1.54970755466114   -2.03091380846384
O         2.98350926346456    1.89401815440332   -2.78792063740073
S         1.47975905490824   -0.69040372100407    1.39123591966835
C         1.19540516228685    0.62757101351971    2.54961261251492
O         0.34375101396208   -1.56553292061038    1.17314354896182
O         2.77657624236699   -1.28137035563733    1.68692722422027
H         0.72974684819696    1.65874450973020   -1.39084016701556
H         0.47329176727508    2.07864587881428    0.34344970403520
H        -0.30945858340070    0.66733542411298   -0.34803136157449
H         1.96108556105560   -0.32753847503811   -0.94670886664852
H         4.21337856298070    2.79229877751530   -0.32589076583669
H         5.02184491862473    0.62116361901487    1.09125980862177
H         5.96113728920084   -0.71009864672020   -3.81747105195388
H         5.48549761813084    0.70760636348078   -4.55397695901749
H         4.18068241141350   -0.41883224998902   -4.02666892306295
H         6.57793208102306    0.38368293949866   -1.19122903275454
H         1.34770812765091    0.20267392698654    3.54248918866572
H         0.14114525109371    0.88456896814784    2.44193358046094
H         1.81568932883980    1.51071012490811    2.37650876183880
