30
 energy: -57.471458652347 gnorm: 0.134085443429 xtb: 6.4.1 (79825abcba525fcdf90b791dcacef51065a7a4e7)
C         0.43624990238081    1.56808001576067   -0.01439390234279
C         1.69841694538697    0.72746256928972   -0.15833237331396
N         2.87311212597444    1.53401902763402    0.20139454205160
C         3.80637808917016    1.90518305852209   -0.83401056956387
C         4.20939419092616    0.87913396296708    0.21747350338965
S         4.45173681197398   -0.61678690437805   -0.88591692603135
O         3.28951753715319   -1.25201941611931   -1.46962478272964
O         5.52942124560451   -1.38253233434217   -0.29198809020447
C         5.02393980250582    0.35420877446229   -2.29975460033941
C         5.26651684001110   -0.22482066975384   -3.67731117883687
O         6.21001485726552    1.00154341506983   -1.78655860744973
C         3.87990243310595    1.35934497974966   -2.20528912536673
O         3.10078819125294    1.63180090024493   -3.10458525459538
S         1.67340299941172   -0.65933383299421    1.08536302656341
C         1.40266450287870    0.04763017014742    2.69367072800826
O         0.56698636834751   -1.56751031350967    0.85086913758773
O         3.00548511370809   -1.23469210827649    1.19907240526225
H         0.33564607532271    2.09676453302384   -0.96395447494762
H         0.57132092842088    2.14364984132556    0.90434322913137
H        -0.42116016358458    0.88638667130897    0.02009577511214
H         1.86033022515198    0.25413423060222   -1.12054908398648
H         4.23604174421969    2.89213459129466   -0.68513159895816
H         5.03507642492654    0.94460930131456    0.91396331185924
H         5.50787351031523   -1.28631323279732   -3.55980744412882
H         6.11393588079696    0.33426622823677   -4.09172972705800
H         4.34331619896504   -0.04985224592970   -4.23770502276817
H         6.86821296061021    0.28234410474961   -1.66229416072224
H         1.70811014298189   -0.85246704724038    3.22852171951824
H         0.40806230209990    0.20614247396141    3.11169823332585
H         2.12251579983091    0.86699783902591    2.76510471238183
