30
 energy: -57.476837853103 gnorm: 0.117920138585 xtb: 6.4.1 (79825abcba525fcdf90b791dcacef51065a7a4e7)
C         0.30328027662082    0.87175768330295   -0.10311721465966
C         1.72896458368385    0.33588405928511   -0.07693817832956
N         2.73747592664048    1.39029964528250    0.09901119390486
C         3.55941037185969    1.99234846839183   -0.92215128219824
C         4.17189228173899    0.99629677688118    0.05435493691247
S         4.77807846481994   -0.42049950217841   -1.01298110450395
O         3.79701417882713   -1.45696426059038   -1.25431597554866
O         6.14862644831946   -0.65481527916125   -0.60406105512567
C         4.79655299707384    0.61419639030074   -2.49563040196763
C         4.72948488921752   -0.18075926786701   -3.78222599363075
O         5.96090380613039    1.44338097972575   -2.28132592152721
C         3.48410820339063    1.35339815529347   -2.25249786987344
O         2.56311371963042    1.37567442269113   -3.05328353217193
S         1.99839364141784   -0.76504384284842    1.40156577458027
C         1.16021743382051    0.04109839296149    2.74594162944579
O         1.25788048853154   -1.98243691860272    1.13041261581761
O         3.40725390808705   -0.82293554931263    1.76235799510887
H        -0.09767160652417    0.99631656411260   -1.11059743783487
H         0.16183584501700    1.84242875117365    0.37791695365771
H        -0.41618096092989    0.15337258593740    0.30596193818816
H         1.89999503291456   -0.30586203057821   -0.93427543482054
H         3.60753460352504    3.07450063312881   -0.83566504198718
H         4.73629959298016    1.20114370035708    0.95469842011859
H         4.36672322102925   -1.13703415260548   -3.39136930897166
H         5.73922596816646   -0.12798183995151   -4.20658129243268
H         3.98187382256760    0.20074448720621   -4.48400032413864
H         6.67768512972937    0.98198542573697   -1.79219125621574
H         0.43997508540032    0.76603801741252    2.36482337549593
H         1.90424793805510    0.52078713846299    3.38267077070706
H         0.58483876220975   -0.71402206579465    3.28759147727022
