30
 energy: -57.470799443600 gnorm: 0.140032694138 xtb: 6.4.1 (79825abcba525fcdf90b791dcacef51065a7a4e7)
C         0.48900591122648    1.73311951827547    0.40240940454699
C         1.62811685517267    0.84519205828444   -0.08177306574285
N         2.87390622826433    1.60765816416029    0.08101534870530
C         3.81784605576155    1.95272283484748   -0.95374038019726
C         4.23357386309585    1.00880982746445    0.16742672364224
S         4.38937491697985   -0.56998649106760   -0.83112622744126
O         3.19915431524973   -1.28844174654386   -1.23384920506749
O         5.53385851149138   -1.29066592219541   -0.31026183380952
C         4.99610500952276    0.32368435542824   -2.28109755515093
C         5.26309105170165   -0.39878290459630   -3.58437816929210
O         6.23333655436683    0.89197824195959   -1.79582807846979
C         3.84090223906540    1.32042160653041   -2.28918553026875
O         3.03208652674510    1.46019676006047   -3.19265923544655
S         1.87282605786638   -0.65102284592651    1.00084715237553
C         1.03073181917549   -0.29923430938082    2.52625634976785
O         1.00668876017213   -1.64900195800567    0.40270541281613
O         3.24969922042346   -0.96599821575525    1.35215974893192
H         0.50062843522170    2.64012108315613   -0.20463821432455
H         0.41622661336019    1.95306793736532    1.47008379058285
H        -0.48767886404629    1.29252830702035    0.17216254987552
H         1.45128751386143    0.44556391151251   -1.07431793510663
H         4.08130938727228    3.00221159603289   -1.05378873026925
H         4.98556893750827    1.19141429901403    0.92392883014884
H         5.59864647595537   -1.43951816740834   -3.52870680518242
H         5.96425345068983    0.23378932775014   -4.14175020303960
H         4.38257328753437   -0.34854188940244   -4.23177212989073
H         6.84560532181645    0.19121008418834   -1.47965567434726
H         1.54402105353966   -0.93000709647640    3.25302830556344
H        -0.05808034065487   -0.33514903595573    2.47824701996084
H         1.42647866512593    0.66776823610494    2.84710302856424
