30
 energy: -57.476321379324 gnorm: 0.120014876401 xtb: 6.4.1 (79825abcba525fcdf90b791dcacef51065a7a4e7)
C         0.64137485271949    1.81813577139360   -0.06775115198981
C         1.78982176274330    0.82283991907301   -0.17204604504112
N         3.09766168784476    1.26341552218555    0.33321988242390
C         4.19836964473003    1.75308059182069   -0.46017886213950
C         4.31072983065851    0.40608154677459    0.24252007986510
S         4.40364776418023   -0.89578340225356   -1.10302580906066
O         3.13918325737486   -1.39464276749469   -1.60027591992503
O         5.42291356205932   -1.89150405646406   -0.83815062389728
C         5.09999006994821    0.31499994250099   -2.25119693187518
C         5.08708228684452   -0.21987641616428   -3.66736130033335
O         6.33915761096897    0.51228243322283   -1.53375026084491
C         4.27632274408723    1.55666589930128   -1.92274330273865
O         3.86673098126156    2.34775371872710   -2.75724875228128
S         1.43829204629235   -0.49259333114398    1.09943750031735
C         1.28062849949406    0.42872402703824    2.61141224587038
O         0.13733099466170   -1.05022821875687    0.78246219977185
O         2.64300948594610   -1.30924769596274    1.11132309428254
H         0.39066042795433    2.20734216316197   -1.05616118720554
H         0.87147483369734    2.74257683873085    0.46709970763516
H        -0.20598195511218    1.33390072324014    0.43079697962153
H         1.74433005432046    0.34389559039048   -1.14398196039523
H         4.68255640075815    2.64974423376583   -0.08281068123899
H         4.95112486294345    0.02057230345468    1.02508845794477
H         4.03551360449772   -0.16960688525363   -3.96819831839484
H         5.48633866064033   -1.24071045920198   -3.69789206059736
H         5.72486060231770    0.42938246781854   -4.27453207916190
H         6.63922973240942   -0.39105158326469   -1.28909045551959
H         2.12266824821626    1.12167400903471    2.62949557774414
H         1.13700502990869   -0.28883687988176    3.41985848824588
H         0.32376563588436    0.94206126569308    2.48671092217417
