30
 energy: -57.476423510676 gnorm: 0.120553961506 xtb: 6.4.1 (79825abcba525fcdf90b791dcacef51065a7a4e7)
C         0.69695458430804    1.93905620192961    0.01498187592710
C         1.75077893525681    0.85904830215687   -0.19348585859791
N         3.07340961886098    1.32794715479232    0.24312320506212
C         4.18068950120232    1.74899041173435   -0.57995982235168
C         4.25748457086027    0.42888563085572    0.17650785393068
S         4.28450484562897   -0.89071075142722   -1.15462508735166
O         3.02196481194002   -1.21055991457230   -1.78603464175288
O         5.22641514234555   -1.91578064890355   -0.75144031004154
C         5.14757927890764    0.31525236885372   -2.18900476064989
C         5.43068011721422   -0.06442486695464   -3.62687817658240
O         6.35153696356511    0.37218360153762   -1.39123848575163
C         4.20171789815922    1.50279460357358   -2.03690709946668
O         3.50377172957474    1.93287788154751   -2.94127664695671
S         1.45925337433617   -0.43772348419666    1.11188917570605
C         1.37189007379490    0.28862799318995    2.73193000338144
O         0.14382957347956   -0.99713758133539    0.86562558094182
O         2.66610436382787   -1.24938295963506    1.16782943538043
H         0.60074772451463    2.53884026015750   -0.89182408589653
H         0.96852886167604    2.54346440563961    0.88362498862407
H        -0.24693955750526    1.38784705151493    0.09422641402486
H         1.75761265198961    0.28685997990086   -1.11471897501746
H         4.73400021890982    2.61142414974498   -0.21815266315252
H         4.80290897270297    0.29023182020663    1.10085822718741
H         4.76813496488828   -0.76139175889592   -4.15042158769102
H         6.41303889546192   -0.54861079222150   -3.68142305137079
H         5.53482965269333    0.82152731792601   -4.26027870795340
H         6.79022381109309   -0.50269990551513   -1.30153484767268
H         1.11154370718333   -0.60597801545047    3.29888457091060
H         0.62571324030092    1.07164132305770    2.87055518741504
H         2.39257316925573    0.57701103656662    2.99592492673820
