30
 energy: -57.470313595958 gnorm: 0.125334759904 xtb: 6.4.1 (79825abcba525fcdf90b791dcacef51065a7a4e7)
C         0.72225919798548    1.32469375274816   -0.58368126178090
C         1.87171258715065    0.40606635836149   -0.18959719796461
N         3.02980253358030    1.12521452046942    0.35949215563843
C         3.96861345979362    1.82091451753043   -0.48634908241776
C         4.41740805064476    0.59141493831084    0.29322239235851
S         4.78915659546657   -0.69468700495577   -1.01892257388366
O         3.82238002187968   -1.73311827723231   -1.30526572944862
O         6.20939235943597   -0.93474789704164   -0.85822905604244
C         4.86132054717598    0.51538939404300   -2.36044905847470
C         4.65955993020342   -0.12454281204607   -3.71749005624475
O         6.14606237039071    1.15837114013909   -2.20170643046105
C         3.81457242084345    1.53805558513256   -1.92857379730205
O         2.83102336746595    1.87703739431061   -2.56709344529371
S         1.51457550050724   -0.65855240397512    1.29689134396464
C         1.00951921205380    0.49640175132105    2.55018705678540
O         0.36056191327205   -1.50863867387600    1.07432530785036
O         2.76919453805957   -1.28481151581904    1.68694303708979
H         0.99504231793115    1.96382865244352   -1.42534014552135
H         0.29452551414257    2.03147272692205    0.13123838035027
H        -0.16888483963857    0.72757248041084   -0.80808238419618
H         2.15725796939105   -0.39325686997851   -0.86462522860361
H         4.26324505597687    2.81132658644427   -0.15000807775485
H         4.98393246528847    0.70008954944272    1.20885123950464
H         5.67754336294907   -0.11298554333018   -4.12048235308273
H         3.90439350882649    0.37200128134690   -4.33846313348028
H         4.39876831622162   -1.18561904627589   -3.66217647275455
H         6.77953704588730    0.40696895284041   -2.20602294497969
H         1.43863362907546    0.15590691993076    3.49329983362643
H        -0.07652330107140    0.50849866967855    2.64751129475949
H         1.51252241974689    1.41635678331099    2.24144348569392
