30
 energy: -57.471737063873 gnorm: 0.143199167605 xtb: 6.4.1 (79825abcba525fcdf90b791dcacef51065a7a4e7)
C         0.20384092312662    0.74218173880242    0.03793571392411
C         1.64375481774921    0.25976088418843   -0.08181267101632
N         2.52253141036698    1.42721375637471    0.07519452814831
C         3.25531354673355    1.91923057658993   -1.06575299278214
C         3.97307603397053    1.10275975372922    0.00149087149359
S         4.67522528767972   -0.30826490522941   -1.01338629509725
O         3.85221868469814   -1.49635046451623   -1.09149943496748
O         6.06077290604188   -0.48806790335671   -0.62809428547669
C         4.71199672385926    0.65103885874008   -2.54556447933266
C         5.14083867689149   -0.14185932187316   -3.76178316993064
O         5.71961042648173    1.66211763864182   -2.31836274217685
C         3.29324237483434    1.17394474122609   -2.34123744450768
O         2.28766692019271    0.95258803551762   -2.99683176179721
S         2.11578687163002   -0.79790936714223    1.37734035543659
C         1.53624228537315    0.00988351065875    2.85089043593198
O         1.45637371611757   -2.08859358170676    1.32043502792926
O         3.56285873868476   -0.64822241397328    1.42191115511942
H        -0.18528643098778    1.02811274737791   -0.94089884540121
H         0.06321272616580    1.57954520487883    0.72543034205096
H        -0.35621172521009   -0.13779098707885    0.37414459503260
H         1.77312744083947   -0.42574741952464   -0.91214855411024
H         3.40088408441454    2.99494917698717   -1.11563242694148
H         4.52572836794856    1.57463667780284    0.80339108163901
H         5.54803521611334   -1.12965263144800   -3.52244661474786
H         5.75592976074185    0.57914527472202   -4.31337654650613
H         4.27782353758777   -0.17616567768091   -4.43333553276103
H         6.38151461417526    1.25714145111865   -1.71521170177685
H         0.46756654880032   -0.06593508248950    3.05514844341233
H         1.75820091956279    1.07441758594165    2.76959929192816
H         2.12039131939489   -0.50934690278529    3.61497273793083
