30
 energy: -57.479743436820 gnorm: 0.133514270147 xtb: 6.4.1 (79825abcba525fcdf90b791dcacef51065a7a4e7)
C         0.65808512899127    1.81017601745221   -0.09774380029211
C         1.83441593889330    0.84595543777408   -0.18108685989893
N         3.11365431760495    1.29908913752282    0.38288547034595
C         4.24424786488944    1.70776663841415   -0.41432993364869
C         4.28239463037407    0.37927251788114    0.33029431312052
S         4.33070298334675   -0.88266807568300   -1.05504031596318
O         3.07216036707625   -1.40937376581268   -1.53840397726527
O         5.41651313030144   -1.73631828398097   -0.61592882111451
C         5.06811942841839    0.31267428597078   -2.19370596710818
C         4.94110047853735   -0.11136992284254   -3.64140536353026
O         6.43827619127797    0.48124779857657   -1.76540733598164
C         4.32746079624142    1.61079680207743   -1.88654684175806
O         3.78757943163368    2.36293436075405   -2.68203530590526
S         1.46492771219310   -0.55045959523531    0.99539590204849
C         1.38787722292135    0.37790995245479    2.50931277710320
O         0.17861786601997   -1.14211635173265    0.68031031193940
O         2.60120661588327   -1.45259495588914    1.11129142653537
H         0.58490723261498    2.49558724862105   -0.94400036682220
H         0.69103110674040    2.45946957591674    0.78028533763882
H        -0.25700290532754    1.21456273319952   -0.00337174139067
H         1.95243544619349    0.50692972120619   -1.20443897863936
H         4.76684406188156    2.61638226443451   -0.12769408010690
H         4.81477205529754    0.19910353980071    1.25509148448840
H         4.00278224737656    0.16065978191529   -4.13575884811073
H         5.14112699657177   -1.17783276177628   -3.79979200492764
H         5.78529038643626    0.28709279331062   -4.21195378055515
H         6.74584646739516   -0.38565704309230   -1.41929960058349
H         2.27271017057775    0.98733157607634    2.69696554760335
H         1.21926864864305   -0.20670305908284    3.41424672960512
H         0.53633255823008    1.06262195961950    2.48298348243143
