30
 energy: -57.476573846444 gnorm: 0.128021107276 xtb: 6.4.1 (79825abcba525fcdf90b791dcacef51065a7a4e7)
C         0.72849158240844    1.28081749690201   -0.51703858986394
C         1.92525487644871    0.44340866694821   -0.08468960824557
N         3.08542916083267    1.23094326799049    0.35534523115718
C         3.96169902198702    1.86778962835362   -0.59722461044262
C         4.45145803442008    0.66248001539808    0.19535466011327
S         4.72198098536417   -0.68577577249153   -1.07861688027190
O         3.67953379048307   -1.64511447936963   -1.37520062333244
O         6.01362059539484   -1.29411888592083   -0.82940406479787
C         4.92488360858876    0.54688630399067   -2.38573606907717
C         4.81669515967288   -0.05336921277548   -3.77129350970278
O         6.18196365104834    1.15689782071426   -2.01584146528176
C         3.85397949425732    1.57802439348819   -2.04227920297229
O         2.97441907225677    2.07184086700409   -2.72966806744957
S         1.53406335098889   -0.66890796908338    1.35764497910289
C         0.83127843190398    0.37260297150944    2.61506273739891
O         0.47996890838586   -1.62435756813547    1.07492490907740
O         2.83107250766874   -1.20081537884462    1.74911845680585
H         0.98366421008182    1.74109980322365   -1.47323985691401
H         0.50018889952015    1.99449914879569    0.27803317555179
H        -0.14753552148923    0.69795260284464   -0.82345727458385
H         2.12666197773718   -0.31687548787852   -0.83136207705788
H         4.32710435656889    2.85439122077275   -0.32529543052451
H         4.93804325742794    0.62448929216287    1.16123659668128
H         3.82731495729858    0.20927857009184   -4.15984156108712
H         4.90557954819237   -1.14627458767498   -3.78115910139269
H         5.54921876164549    0.36103135865184   -4.47031852488742
H         6.63211459005167    0.33691201436117   -1.71434278656501
H         1.40593918893314    1.29894407379777    2.64962860578481
H         0.92565414071062   -0.02735731080369    3.62512792385657
H        -0.22109679821990    0.46335363964392    2.33413076765577
