30
 energy: -57.472946319268 gnorm: 0.135852177704 xtb: 6.4.1 (79825abcba525fcdf90b791dcacef51065a7a4e7)
C         0.98986887785899    1.66560384888946   -0.70488015625061
C         1.89846581275718    0.53560748612306   -0.23799538747631
N         3.16898899476977    0.93798893284943    0.38144453137241
C         4.37424754178549    1.49957663786456   -0.17782511336667
C         4.36951342146645    0.06049701176162    0.32201932864141
S         4.60256615452314   -1.01410711496087   -1.19616781873778
O         3.38395635137354   -1.64695193293794   -1.65386467578794
O         5.71889066313941   -1.87274817889543   -0.85400357325749
C         5.03759429525417    0.36128882770974   -2.28622394410399
C         4.83059620554161    0.20062897438198   -3.77723737519217
O         6.42722052100607    0.61076614202601   -1.97656877431288
C         4.38342066573647    1.58569677343111   -1.65303673489818
O         3.69424904031641    2.38519253369829   -2.26608950485768
S         1.24243613047134   -0.38200083807466    1.24464691979433
C         0.92987176818922    0.82371195929327    2.51283904594661
O        -0.05111119063506   -0.91656613140249    0.86398310270251
O         2.21283022689300   -1.33210327411589    1.76814513994686
H         1.39928295710620    2.04398121019201   -1.64323212650615
H         1.14542003595417    2.39877713272538    0.09001826469101
H        -0.09657551704602    1.54628566887570   -0.78518666414310
H         2.04968711574293   -0.28103103216372   -0.93538354588521
H         4.84850649842079    2.32846176957290    0.34070852585756
H         4.89769053270518   -0.27834936759182    1.20369300951205
H         5.68946382314637   -0.16719927562105   -4.34809236944465
H         4.47711997494532    1.15615033943188   -4.18279057521028
H         4.01156987151828   -0.52204870196792   -3.83958697866692
H         6.80003178998561   -0.25355696858988   -1.69395355550975
H         0.34135803989902    1.62411726303890    2.06279397677882
H         1.89646130022370    1.26188218916564    2.76347465643861
H         0.43022856954543    0.43680255413944    3.40464051869827
