30
 energy: -57.471691146750 gnorm: 0.142514296030 xtb: 6.4.1 (79825abcba525fcdf90b791dcacef51065a7a4e7)
C         0.40614410648924    1.48713171517745    0.03319304240127
C         1.67708171976496    0.67340437623812   -0.17413997785100
N         2.82205927183043    1.56649317789801    0.05227685050320
C         3.77638667915988    2.00704338803102   -0.93564327210729
C         4.20125275553972    1.01411274883584    0.13878431041685
S         4.53104144353342   -0.55975361252212   -0.82462832267659
O         3.23399615518790   -1.11243389865736   -1.15205290358104
O         5.63893381681528   -1.39814501721969   -0.41208063819378
C         4.95247923478792    0.35197072112904   -2.32806929811558
C         4.99300874450505   -0.39951553461915   -3.64161663817977
O         6.17698096589005    1.03640655312381   -1.97974559165417
C         3.85070113338007    1.40656708142929   -2.28384790650049
O         3.10830381833464    1.66962450881417   -3.21638836504961
S         1.86113184493223   -0.61457757594513    1.15921526772736
C         1.07677211084862   -0.18125471117296    2.69439024278015
O         1.16163672327850   -1.80740581963974    0.72126889697866
O         3.23765307779181   -0.96156917478454    1.48045638545226
H         0.06147406859236    2.00751414109442   -0.86218309667483
H         0.52011490865313    2.29940417256222    0.75487637920685
H        -0.42578001488934    0.86470878249744    0.38181795413900
H         1.78641823918071    0.07848524370892   -1.07426960571044
H         4.03825975454262    3.05364809138791   -0.80568052261317
H         4.83803554546636    1.34511491217653    0.94877297306328
H         5.69894284329830   -1.23635905839153   -3.62832771005413
H         5.47608745849463    0.22143054415802   -4.40548890899959
H         4.09538217333944   -0.81108293999451   -4.11260861494716
H         6.77270546808614    0.32644450094985   -1.65266724376481
H         1.10378257799587   -1.11647533067949    3.25489934192671
H         0.03438275027924    0.06595725538352    2.49087771918395
H         1.67764417790503    0.54179250626540    3.25189141811822
