30
 energy: -57.462950431149 gnorm: 0.148524750586 xtb: 6.4.1 (79825abcba525fcdf90b791dcacef51065a7a4e7)
C         0.82276840421185    1.29246574306781   -0.58391743938543
C         1.93033677026166    0.33778637961786   -0.15694997388133
N         2.96839969953126    1.24762105286168    0.34750219568764
C         3.89212477994064    1.91544320723825   -0.53655493575854
C         4.35123230173426    0.70383478057646    0.26472051471499
S         4.80006877475609   -0.60739029130072   -0.99750548120981
O         3.78151889497968   -1.61631916797225   -1.19652179030545
O         6.12838245338623   -1.06585607244891   -0.64266304739426
C         4.81737494051675    0.57231218578440   -2.36761073350015
C         4.53121564590226   -0.14215488041909   -3.67123280980349
O         6.08384001382233    1.26865135856792   -2.34852470304194
C         3.75237670403889    1.59054984890240   -1.97135978188108
O         2.86205497242220    1.87868651421127   -2.75512579539775
S         1.53447588242042   -0.74394432226537    1.30720883551371
C         1.35962732683755    0.32948633711757    2.71324073513120
O         0.26172731060225   -1.29891919646923    0.88763330127633
O         2.61474001519109   -1.69820426372289    1.50926599786190
H         1.06439299050863    1.42978700078380   -1.63940508201430
H         0.88089802424930    2.25277672586935   -0.06620469121461
H        -0.15308598003141    0.79373632900494   -0.57896051774655
H         2.14953995320992   -0.32485972950382   -0.98699014602690
H         4.16306668716119    2.84546138012739   -0.04410606944467
H         4.98185805040302    0.58308861413627    1.13585079065179
H         3.67362041903256   -0.75656483787811   -3.37821836997712
H         5.40163844131195   -0.70436845269783   -4.03000847660134
H         4.36204215760654    0.59895168985825   -4.45805935682745
H         6.79870048620704    0.82235670845493   -1.84284730197759
H         0.77408289319263    1.18558435336580    2.37594038594904
H         2.33831058024816    0.70627911472461    3.01209349996620
H         0.92165627828824   -0.14384318316182    3.59573300484995
