30
 energy: -57.475990416414 gnorm: 0.129334018443 xtb: 6.4.1 (79825abcba525fcdf90b791dcacef51065a7a4e7)
C         0.66680032940045    1.53715093489048   -0.32170048246432
C         1.85722546993765    0.59433031087235   -0.20170536067729
N         3.03910492670977    1.32464713258094    0.27750656614274
C         4.03069751639587    1.91666558406300   -0.58682540911053
C         4.37851624215117    0.67782458597748    0.22871869056009
S         4.63421732561607   -0.72743827465548   -0.98529657521692
O         3.47856118483032   -1.50569790994498   -1.37741856085194
O         5.87946950867341   -1.43502658054096   -0.76351505575028
C         5.06583373028062    0.44207255153329   -2.29492917559341
C         4.88683993561937   -0.11795277219689   -3.68996096934527
O         6.32265051175039    1.07845974992801   -1.97149570002271
C         3.98212339136123    1.47363309157521   -1.99576575249971
O         2.98060093511056    1.65900547596266   -2.66850236829390
S         1.47074946988435   -0.59869780872148    1.17594785315395
C         1.18835060931686    0.24027399530193    2.71741737828654
O         0.32494270455971   -1.38409135794736    0.75855894934374
O         2.73821885440659   -1.28186064903317    1.38859691095174
H         0.82663519134122    2.25758502919898   -1.12589030314888
H         0.67775968432542    2.18808922958929    0.55566030787026
H        -0.31120953542698    1.04263716231778   -0.32123742125929
H         1.99678209687768    0.00207508145743   -1.09941037088719
H         4.31468814465484    2.90253364914719   -0.22868756544346
H         4.96101000584813    0.56877029192285    1.13422660893775
H         5.39920474730005   -1.07121176391967   -3.85611218156262
H         5.29377050023597    0.64355444289474   -4.36594484479674
H         3.82380289885686   -0.28381352783986   -3.88844799941447
H         6.85264263339873    0.37633154302425   -1.53327386600623
H         0.11478230309079    0.11439298211287    2.86282262274668
H         1.46076416441142    1.28883750974022    2.59327192366584
H         1.77052173570195   -0.35742600177636    3.42345106971148
