30
 energy: -57.466036568744 gnorm: 0.141538366607 xtb: 6.4.1 (79825abcba525fcdf90b791dcacef51065a7a4e7)
C         0.77319025774628    1.62633735156315   -0.51983443763845
C         1.81460930972360    0.54995526009407   -0.24186037494828
N         3.06377525384207    1.11937604653656    0.28272511095615
C         4.20778208945852    1.70541970584099   -0.37196033394915
C         4.32759235084506    0.33353972925694    0.27950593928803
S         4.56249784435026   -0.91936531799148   -1.09491319658644
O         3.22293523896866   -1.33562875494549   -1.45168430200193
O         5.63024614402553   -1.84803001604533   -0.78183698259998
C         5.13420929833344    0.37801068379046   -2.21703055158869
C         4.95939034513477   -0.03983774423817   -3.66154495784568
O         6.44827112127609    0.75399385546400   -1.74685560446886
C         4.31009175939599    1.60636387628165   -1.84283443194413
O         3.84564307425301    2.37132129150960   -2.67296232842473
S         1.21173715441384   -0.47366955419666    1.19318164776221
C         1.33596111309410    0.55358864404684    2.63853976964608
O        -0.11683663849430   -0.96624391184268    0.88303354660687
O         2.21866592952044   -1.52146231855576    1.27463404137224
H         1.06262033159912    1.95805398182831   -1.51857766768312
H         0.94007665225295    2.47200353482849    0.15143328749165
H        -0.24238474306592    1.23931475568113   -0.37887947444593
H         2.04967621757430   -0.10374989643622   -1.07464470635047
H         4.68886989186875    2.53214589394649    0.14372121613650
H         4.88141072636745    0.14877188820810    1.19070421959270
H         5.75399974371067   -0.63183282912707   -4.12733928415682
H         4.82778483020885    0.83922787857264   -4.30370034590596
H         4.07824468304643   -0.68667664079199   -3.61532378122331
H         7.07113070675821   -0.00590922746387   -1.72433261275353
H         0.87834074831319   -0.07978731180823    3.39943143294409
H         0.82147439489883    1.50875355647608    2.74840373174428
H         2.41525630300651    0.59650729833682    2.80566835108252
