30
 energy: -57.477984902192 gnorm: 0.125016885241 xtb: 6.4.1 (79825abcba525fcdf90b791dcacef51065a7a4e7)
C         0.24420166260412    0.63050494802440   -0.07288949333113
C         1.70008512289405    0.18488529879632   -0.02547584437824
N         2.60299297445635    1.33326558153814    0.13522860013287
C         3.22804024468569    1.91549593889077   -1.02715480116986
C         4.07437521899266    1.16253611463871   -0.00853531210976
S         4.89880978750152   -0.23003571224645   -0.95459618972194
O         4.04279954032130   -1.39707037326322   -0.97088689647727
O         6.32830346112160   -0.33241127335402   -0.73875288740819
C         4.68134884414629    0.61837861300895   -2.53639570654747
C         4.72876399092157   -0.30976219823047   -3.73142176764548
O         5.70361613823998    1.62923293910363   -2.38696540993944
C         3.32659150411912    1.29948308355364   -2.36676892288114
O         2.56237600456277    1.57038941479382   -3.27922117927156
S         1.98412196628319   -0.89589214732792    1.46511174171679
C         1.41139586033242    0.11481874149941    2.81054825353551
O         1.20761553548032   -2.10464403931564    1.26539620831820
O         3.41392847876234   -1.04863344047512    1.69035197724607
H         0.02828668241398    0.85879019836509   -1.11814558614832
H         0.07515209229950    1.50078862707645    0.56557059843625
H        -0.31067359556425   -0.25644481172277    0.25342469676285
H         1.91778261614044   -0.36398752019089   -0.93512579205751
H         3.28952676012969    2.99816410001530   -0.95716706005278
H         4.61478048083787    1.60334620205484    0.81898206748585
H         5.77998766015235   -0.44283957356086   -4.00718587014747
H         4.10732948291717    0.02453673270056   -4.57076871602807
H         4.40743250754867   -1.29235845370715   -3.37336407767417
H         6.54239325049147    1.14143880720512   -2.23068398274932
H         0.52677404672814   -0.29355614394719    3.30066234486684
H         1.12265726675219    1.07840324050479    2.38954751635737
H         2.22587210013612    0.18291864165348    3.53624994069506
