30
 energy: -57.469177887549 gnorm: 0.140801337113 xtb: 6.4.1 (79825abcba525fcdf90b791dcacef51065a7a4e7)
C         0.65606838884541    1.54749398002760   -0.36640331417874
C         1.79270045182157    0.56528981709237   -0.11388774456066
N         3.01165036853505    1.32564839822218    0.19572773076344
C         3.99403024153696    1.95718422913843   -0.65097394731045
C         4.39589214723630    0.78015195597319    0.22875277165851
S         4.74329940554368   -0.60771074195930   -0.98249663703771
O         3.51096792157866   -1.34537062545291   -1.16195650308339
O         5.95399492759947   -1.32304990536230   -0.63174389264935
C         5.04130477183527    0.46416063975459   -2.40779323062537
C         4.95687547610927   -0.23003090653701   -3.75045872946265
O         6.29321182993390    1.15187990088554   -2.18653040386593
C         3.94306893323652    1.45777619132233   -2.04084613278733
O         2.94953056889180    1.60802848624478   -2.73387605369594
S         1.46555831344328   -0.68506279288508    1.22782926137219
C         1.15470891198893    0.15947582325423    2.76076053128447
O         0.25464579353397   -1.32971183458943    0.75660940835754
O         2.66070671850601   -1.49597658455202    1.40796488551289
H         0.93819359524826    2.20093278506718   -1.19387949509202
H         0.53536730578942    2.22840210286147    0.47940878347013
H        -0.30142900402012    1.01795287938773   -0.42830925527998
H         1.96749763829408   -0.19315545933723   -0.86908526644539
H         4.38463630271162    2.90746332189685   -0.29707314168737
H         4.92718262917174    0.81107243203871    1.17104293672635
H         5.97458607341719   -0.48856672646355   -4.06070218304920
H         4.40549997446569    0.42753604494448   -4.43312312947643
H         4.44858714190354   -1.18504363606599   -3.58752227466411
H         6.89215634210111    0.44336349314747   -1.86220955196468
H         1.25472741494151   -0.47890278118377    3.63939963735584
H         0.07108040342740    0.28031859090959    2.74485569993691
H         1.71746474234776    1.07767036216411    2.94751369424403
