30
 energy: -57.471757312606 gnorm: 0.137121555394 xtb: 6.4.1 (79825abcba525fcdf90b791dcacef51065a7a4e7)
C         0.67706177968380    1.29045683542089   -0.54998957347037
C         1.77144534473110    0.29408290031416   -0.18945496221611
N         2.89623199610915    1.13737990509122    0.23897318357523
C         3.86153218794860    1.81491991684081   -0.59165724760614
C         4.28571944460158    0.60443332196233    0.23029461381572
S         4.83264479072498   -0.65179162476236   -1.04906114180125
O         3.87790535681549   -1.71626994078723   -1.27344335500906
O         6.20499272820745   -0.95391432086263   -0.69423121052398
C         4.98117969827700    0.52837317410076   -2.41080056850456
C         4.96401639132304   -0.11640611227816   -3.78037931230125
O         6.22879045481144    1.15769569609575   -2.04119691157747
C         3.89215832800106    1.53125423325971   -2.04160406130677
O         3.14954262037888    2.07385941833231   -2.84415391618080
S         1.28977775408739   -0.67371787017742    1.32776822863571
C         1.56310550033837    0.43430116634043    2.69060969261268
O        -0.11415077229663   -1.03593740353914    1.28639954968481
O         2.22452364291304   -1.76349177210450    1.56662528316433
H         0.72900915190502    1.76365786373437   -1.53216877646789
H         0.65914342294735    1.99466121869485    0.28510194417490
H        -0.25137765102143    0.71517147975454   -0.63995822938748
H         1.93834966339519   -0.51043868880444   -0.89727174508484
H         4.06735313749525    2.84704314977938   -0.32108659584429
H         4.91361378856165    0.47682348313828    1.10241883057522
H         5.88081102576435    0.06265526341415   -4.35156339255678
H         4.12852565647996    0.23523887782713   -4.39742141494973
H         4.66026643556681   -1.16365743247163   -3.69118699103763
H         6.83501067033112    0.40511635966859   -1.86221245252468
H         2.63424258451888    0.53126206743171    2.87172168456706
H         1.04042104276577    0.22711571524056    3.62494465928642
H         1.09815467874130    1.36269001605276    2.34919065705184
