30
 energy: -57.473723114509 gnorm: 0.127098067975 xtb: 6.4.1 (79825abcba525fcdf90b791dcacef51065a7a4e7)
C         0.31947660449649    1.36915285609151    0.00279402521435
C         1.61206566223650    0.58982481638658   -0.20283420495654
N         2.82665420083639    1.37163991786476    0.06806305253357
C         3.85992346715288    1.98164220880627   -0.73260147458327
C         4.21150584003404    0.84955766555795    0.22426418777559
S         4.59574816727196   -0.57578703496487   -0.93104094840937
O         3.37907777179229   -1.32469589050701   -1.16307008189094
O         5.76266416426529   -1.27106941912478   -0.42565918418967
C         4.91220001535370    0.46876943914679   -2.37254912980153
C         4.80733532520605   -0.40476040266892   -3.60451092110111
O         6.25075360635571    0.92806068494516   -2.07841967595887
C         4.00704423814475    1.68056988655009   -2.17185852879987
O         3.49606929961695    2.36149028731438   -3.04663665414628
S         1.70695171055587   -0.73372142563905    1.10477054843671
C         1.26137205396194    0.03313359173091    2.64527152211400
O         0.71765441855688   -1.74900223225744    0.79748335812753
O         3.07368342546034   -1.13320953734617    1.40620610472764
H         0.08852372618780    1.86733861793320   -0.94047976462035
H         0.57769101047377    2.12121755919540    0.75201143326270
H        -0.44181985583782    0.66287577053918    0.35300503572837
H         1.62569477150105   -0.04633635637206   -1.08103113350973
H         4.01036366304702    3.03531189915382   -0.51351920636595
H         4.77245160111513    1.03106709072620    1.13174996602713
H         5.10913192415646   -1.41392454970962   -3.30562437320223
H         5.52702243525604   -0.13697067200764   -4.38731296968121
H         3.81542605355359   -0.48803090551766   -4.05853366696561
H         6.87281799478141    0.19482292454405   -1.87516533457906
H         0.23113739884851   -0.18142898419274    2.93183230024833
H         1.52281116051301    1.07586179668268    2.46231205311708
H         2.00632687003197   -0.48148072674618    3.25753495052816
