30
 energy: -57.477979438033 gnorm: 0.117615363561 xtb: 6.4.1 (79825abcba525fcdf90b791dcacef51065a7a4e7)
C         0.21299251882294    0.81794759631143    0.27040195490214
C         1.61393193133183    0.27598078905766    0.01729651789667
N         2.56850286293543    1.39306488745300   -0.01032535332554
C         3.26505543327636    1.95424859274723   -1.14200516830657
C         4.05365857830791    1.29785997997075   -0.01591612542588
S         4.72353644958618   -0.21008752186489   -0.90548771169930
O         3.82158806810241   -1.32006932836030   -1.12779010289601
O         6.13043500161265   -0.36616788066248   -0.59436611073768
C         4.79154079717105    0.57585713343479   -2.53240265946887
C         4.99923286270659   -0.26500603366704   -3.77401209191892
O         5.75976216805188    1.64802867420281   -2.48569223829064
C         3.41395449197634    1.22153546074011   -2.41664648082930
O         2.50213181303327    0.93138907475977   -3.17452458895070
S         2.08185572731084   -0.89496865227383    1.38862176968824
C         1.40888812130246   -0.11482447004323    2.83715231953231
O         1.32766702157070   -2.12259434621209    1.22109799132019
O         3.52944364132078   -0.85304449894987    1.53402233014115
H        -0.20181033481116    1.19786967923541   -0.66495441176136
H         0.28978053989726    1.64717955281673    0.97756578641051
H        -0.40734963907156    0.00060890007823    0.65534407778804
H         1.62203822611599   -0.36903510468604   -0.85448637916705
H         3.19236175461292    3.03610584832736   -1.21376607838474
H         4.73446834546370    1.81287039160369    0.64921437512310
H         5.67632966954251   -1.10296723623637   -3.57859569363790
H         5.49427547981199    0.45929356581664   -4.43185920229030
H         4.04124632423214   -0.63858806173967   -4.14771370268110
H         6.59823099060424    1.35730343105854   -2.06336190475899
H         0.38444205859019   -0.48807870216350    2.86415539064722
H         1.43332223248069    0.95578781871736    2.63148515018026
H         1.86839423345235   -0.35080339748854    3.80038653798695
