30
 energy: -57.474266793110 gnorm: 0.129228096669 xtb: 6.4.1 (79825abcba525fcdf90b791dcacef51065a7a4e7)
C         0.26908018202264    0.58588614461462   -0.16090590163168
C         1.73058776663345    0.18008492216729   -0.02039756707042
N         2.73441830545615    1.23319481618818    0.18727843646822
C         3.49342223372218    1.90013369277936   -0.84224446602929
C         4.19491779174039    0.95434458340778    0.12429803599161
S         4.82150051052826   -0.27517984846769   -1.14441919025065
O         3.84391489885873   -1.33923887128122   -1.22864277100255
O         6.22068595399633   -0.59387583034338   -0.94135705044048
C         4.72087160724014    0.79173126775470   -2.60070224460108
C         4.84126211307879   -0.13407823416109   -3.79240847374246
O         5.79028744526070    1.75268707952742   -2.45204158108135
C         3.36830994553431    1.38826547837024   -2.22285584294016
O         2.38403000374671    1.19439008388829   -2.91826226228262
S         1.99438784097380   -0.80695337773527    1.53741278914923
C         1.26764345735114    0.12028594672292    2.86851043218007
O         1.22391823908756   -2.01395338553202    1.30620457070991
O         3.40698615488523   -0.81067423529078    1.88807200648324
H        -0.04755727143792    1.03397232255222   -1.10443821357705
H        -0.15378899720006    1.24393850799876    0.60182043276131
H        -0.29596015357880   -0.35101481975497   -0.22409905919942
H         2.00367972983417   -0.48751502693003   -0.83024182206699
H         3.56067982469111    2.96188475668399   -0.62086191276829
H         4.85749966393546    1.25099910306080    0.92686741532242
H         5.90374526626448   -0.25664477618563   -4.02678770317877
H         4.32625123834827    0.22095511347463   -4.69304993644598
H         4.37055137371637   -1.08377931429275   -3.52138468976128
H         6.61804439560192    1.24507204225660   -2.60389496109914
H         0.19340896008066   -0.06428319770533    2.82988273846898
H         1.46750405565430    1.16311109153143    2.62015958837833
H         1.68047891735360   -0.13944910813962    3.84664982141433
