30
 energy: -57.466736194546 gnorm: 0.132857757488 xtb: 6.4.1 (79825abcba525fcdf90b791dcacef51065a7a4e7)
C         0.50791939432844    1.34737086257573   -0.42959998157217
C         1.78365600720223    0.54515728389179   -0.20740403037211
N         2.90583230171713    1.36434592788294    0.27165346921838
C         3.95144320318104    1.86853905032634   -0.58467510385057
C         4.22477713264822    0.67704468976088    0.32441610554361
S         4.58912397102263   -0.72066426075433   -0.87042316477729
O         3.50778965564352   -1.60799829177737   -1.24236838197918
O         5.90974771113107   -1.27550025064260   -0.64989830379822
C         4.86400119950493    0.39289267043695   -2.26814248872624
C         4.73503164370165   -0.17235719915002   -3.66658458110086
O         6.00815600527538    1.25707159751564   -2.08568464876714
C         3.82908314351561    1.48296615845372   -2.00598144104861
O         3.02742626748675    1.96344027817696   -2.79114102297361
S         1.79281789269369   -0.70640796165268    1.17249041710611
C         1.28386274347611    0.36955031981513    2.49272885465751
O         0.67187188399646   -1.60542849611416    0.97457177042779
O         3.09990857480103   -1.29407644913405    1.42659556369988
H         0.74731844424233    2.10960985529692   -1.17322189307062
H         0.15012861538517    1.99596669198309    0.37346411219551
H        -0.30214211376050    0.64196007759697   -0.64695535355040
H         1.99823500738378    0.02786567594566   -1.13610303442298
H         4.15113371325525    2.87947326273620   -0.23973316903254
H         4.73154169754861    0.61245877872529    1.27843640783289
H         3.74328949358782   -0.61289379939143   -3.81219241897669
H         5.61035556139611   -0.80196546134409   -3.86618768282272
H         4.74643961707431    0.74846796891577   -4.25726681459360
H         6.78953312925231    0.66374055790711   -2.02804688884782
H         0.20393326841008    0.52004381804408    2.46739787005873
H         1.90677314949588    1.26411787807602    2.46377729537997
H         1.58144577768980   -0.17402909618912    3.39307203186734
