30
 energy: -57.468099271230 gnorm: 0.144006673056 xtb: 6.4.1 (79825abcba525fcdf90b791dcacef51065a7a4e7)
C         0.45183771513558    1.58675341959476    0.21456884154078
C         1.70216512852892    0.79506826002998   -0.14645407462521
N         2.89156390735123    1.58819434440776    0.19432052435389
C         3.78743828083946    2.00266797146072   -0.85755028159033
C         4.26209965215546    1.00818216252735    0.19435829001327
S         4.45123410010732   -0.55539848798301   -0.82221610212086
O         3.14014140387965   -1.01520836796165   -1.22792492671489
O         5.60115504595964   -1.27902718762601   -0.31767216987018
C         5.01198543078385    0.33219411417056   -2.29426336828328
C         5.05157549599178   -0.50958067818053   -3.55189156318061
O         6.27655370751253    0.91662695738600   -1.90891725214057
C         3.87674755103634    1.34497696292727   -2.17785954308504
O         3.03919232363968    1.56874691366386   -3.03716912034447
S         1.84665725932994   -0.69457446371007    0.96291275000848
C         1.15635057618620   -0.25663020543160    2.54134000860489
O         0.98633946428649   -1.69320336665090    0.35750109411551
O         3.23624359106001   -0.92202316424400    1.33132372254945
H         0.28759307969211    2.35437185789562   -0.54377103434732
H         0.63808568166988    2.21345329612406    1.08987546614779
H        -0.33370878407929    0.83072797482451    0.32587743649306
H         1.75274092649863    0.41512574397661   -1.16095019223384
H         4.06629265407068    3.05134016105908   -0.79944596987345
H         4.91660391436379    1.31952131335554    0.99799283936163
H         5.66609168144334   -1.38217639012517   -3.30740595663228
H         5.60643647365505    0.07838902355012   -4.29274299759953
H         4.00454445172835   -0.79272475120439   -3.69510489686729
H         6.83510990394099    0.14108884441903   -1.67985469670192
H         0.98777281949592   -1.15318988428090    3.13908569439498
H         0.14724922034274    0.04183919287236    2.25544290335588
H         1.62640909881113    0.62310212716567    2.98829424399516
