30
 energy: -57.467651963217 gnorm: 0.154692614860 xtb: 6.4.1 (79825abcba525fcdf90b791dcacef51065a7a4e7)
C         0.53353374898153    1.50585382717856   -0.02088880866616
C         1.76053724479339    0.60957526839298   -0.12844692151723
N         2.93135785629978    1.44149200437292    0.18290405254288
C         3.92531351242104    1.97007612962943   -0.71901747040388
C         4.26996517659075    0.79117492214127    0.18221736679146
S         4.53804370631762   -0.62644496305476   -1.01464000475043
O         3.54205823530199   -1.60598276383072   -1.39346379556256
O         5.81346750341696   -1.17888158233359   -0.60399517463560
C         5.08795076374687    0.50698064713871   -2.31161126665873
C         5.16144370399442   -0.17205187094120   -3.66264586088281
O         6.33185996637669    1.11833559210316   -1.90158525687141
C         3.91632080150416    1.46271369155172   -2.10691250761808
O         2.97014082265022    1.54269970506055   -2.87393948309217
S         1.54135458511683   -0.71405943634768    1.16405386599543
C         1.34201524212420    0.11459445125116    2.72397298664919
O         0.31857995310334   -1.41245001666078    0.81619978017682
O         2.84545405311003   -1.35936819459277    1.20026040644449
H         0.39110042333619    2.27174876396883   -0.78535687770325
H         0.65991415668902    2.11668496206073    0.87605937466509
H        -0.38525244645343    0.91741826330991    0.08217861553078
H         1.64323534562175    0.17527332094458   -1.11522889890573
H         4.17648464342507    3.00770941119487   -0.51633673706117
H         4.84614459953310    0.76188598635088    1.09780233992223
H         5.51276436290452    0.50348273024092   -4.44944534491306
H         4.17461829733577   -0.55719821346284   -3.94597929426185
H         5.84789187124376   -1.01784674690186   -3.56079020639407
H         6.90630694900768    0.32176597470434   -1.93902257163551
H         0.26916078671289    0.16518415141968    2.91360848520530
H         1.65148319133373    1.15651334667125    2.81195756575549
H         1.85918724005323   -0.41332314567268    3.52926064672618
