30
 energy: -57.475631745198 gnorm: 0.130649060438 xtb: 6.4.1 (79825abcba525fcdf90b791dcacef51065a7a4e7)
C         0.92598815013680    1.62791576296197   -0.57605337573429
C         1.86046066117338    0.47681981025981   -0.22653828709367
N         3.14111197689723    0.96166378431679    0.30703863752418
C         4.31306189567477    1.57830513578541   -0.26488643250269
C         4.40616496897018    0.17809348616469    0.32803533248007
S         4.55109401678882   -0.93152285061114   -1.17586856743184
O         3.26442929653689   -1.47670278906720   -1.55304434279345
O         5.66471109160291   -1.84188523121152   -0.99805236388984
C         5.09947760186268    0.42638680423731   -2.23631312180412
C         4.91216528089527    0.05506721886474   -3.69192869873440
O         6.48135147194281    0.51941770699901   -1.82284467039667
C         4.35098003188886    1.65982509784508   -1.73990062655383
O         3.91232891352822    2.57641872223697   -2.41623339784186
S         1.24978822035808   -0.45338313233313    1.26758682194272
C         1.04778709552550    0.76241721487254    2.54851467349786
O        -0.07061151280903   -0.94643403968137    0.92498645101186
O         2.24456087935300   -1.45745160715406    1.61498224946535
H         1.38763175929878    2.11639813934573   -1.43603237587909
H         0.76412054069807    2.43899248917863    0.13777864428724
H        -0.03770143540045    1.23091192977367   -0.91478294456636
H         1.76091888268274   -0.19382638703525   -1.07296707258081
H         4.55912835305100    2.50239290781339    0.25121658881164
H         4.79328035535372   -0.02397730452432    1.31820979351720
H         5.18765879509604   -0.99768271048885   -3.81295572353307
H         5.49849453736485    0.59220012430619   -4.44700893794201
H         3.84628343540126    0.06605752747650   -3.93836274145268
H         6.85714635203486   -0.36322718569959   -2.03645704178462
H         0.32325496951176    1.48705119255412    2.17502247861222
H         1.92319909266828    1.36850429829149    2.78392700437971
H         0.72740256463343    0.21796267042744    3.44046483010789
