30
 energy: -57.465986223749 gnorm: 0.129129211015 xtb: 6.4.1 (79825abcba525fcdf90b791dcacef51065a7a4e7)
C         0.66100406066368    0.83408462046111   -0.67951298920141
C         1.88457892034454    0.10981265323788   -0.13296358835623
N         2.97267401544181    1.02887044421411    0.22928996488111
C         3.91441951313798    1.82553671927787   -0.51854004865418
C         4.38618699262519    0.56460053692478    0.19440628347381
S         4.75367088059081   -0.64220659061611   -1.19215490803948
O         3.60834001445619   -1.46970483529813   -1.50592663211741
O         6.03207402844724   -1.25315697257541   -0.88728398728604
C         5.00973111981230    0.70688722582472   -2.36840525028850
C         4.95920736270969    0.17058450604974   -3.78318706739465
O         6.33946933124827    1.17333069192475   -2.04682620263020
C         3.87088524484609    1.64707000948714   -1.98482942845658
O         2.92546257103684    1.99929226403602   -2.67192487219126
S         1.41281000729613   -0.69344401428511    1.48036247568968
C         1.39651503255560    0.75213246990026    2.51467103799587
O         0.09559652556443   -1.29108424133738    1.37217527462462
O         2.49230115047621   -1.54942893725325    1.94982856918587
H         0.82555878196449    1.11369506040921   -1.72164229086089
H         0.34962156652683    1.69816496122100   -0.08789754274728
H        -0.16408512455926    0.12751663294049   -0.82455400710095
H         2.12208181143307   -0.70015929857601   -0.81388531835478
H         4.08384764394604    2.76938580988417   -0.00737253772627
H         4.90537053544262    0.61467637969250    1.14260312088147
H         5.63598014047134   -0.68907313984855   -3.82554235094954
H         5.37684951854388    1.03223515263539   -4.31757748261253
H         3.94134973855820   -0.08735881854461   -4.09040967582866
H         6.87814009747071    0.44014992115358   -1.67508192671433
H         0.36644800860632    0.65855020275621    2.86070847576057
H         1.46913400674373    1.66756298558562    1.92660629797410
H         1.97664097444902    0.68550839260231    3.43861216396665
