30
 energy: -57.476318404605 gnorm: 0.132158668393 xtb: 6.4.1 (79825abcba525fcdf90b791dcacef51065a7a4e7)
C         0.83048108741376    1.63022675148265   -0.46520860279709
C         1.89095744596048    0.56584174017711   -0.21441782986033
N         3.10504959471353    1.10839260805050    0.41125348235341
C         4.26475354222997    1.62853518111495   -0.27091211775634
C         4.29457412959506    0.21997531906698    0.30864537837034
S         4.64293904399953   -0.95326911841179   -1.11125575343394
O         3.44832841256201   -1.66615991518839   -1.51085677847083
O         5.83071519132256   -1.68737846061259   -0.72293558823068
C         5.01079744085117    0.37363633953543   -2.28308677644279
C         4.75974028215024    0.06642708283053   -3.74403633936637
O         6.38675640113783    0.68660102565387   -1.97007504157821
C         4.33055219424532    1.62987406385166   -1.74719762913263
O         3.87730980461771    2.50516065584132   -2.46721805431091
S         1.25278846619139   -0.48587362283981    1.18459729765189
C         1.11372518969272    0.68491126910435    2.51488871000399
O        -0.09284153869371   -0.92689739455682    0.87041965679549
O         2.17845303894468   -1.58850663180534    1.39850212475789
H         1.20702962942159    2.26887786250562   -1.26622651043260
H         0.70891661093776    2.26436683381121    0.41609223245379
H        -0.15073698778577    1.21811792652512   -0.72678992233164
H         2.06521597880263   -0.19492309130564   -0.96740350673185
H         4.79625414633228    2.44415720834465    0.21190986506553
H         4.85441261574525    0.04866782422125    1.21879426698967
H         4.69513872888707   -1.02043388285735   -3.85973643110488
H         5.62292057841043    0.41527133825884   -4.32340442985013
H         3.80381595406657    0.38727747343500   -4.16855764417658
H         6.95709717591782   -0.10750822552908   -2.07015471770158
H         1.09372632485154    0.14355355718923    3.46149818385749
H         0.13422572020172    1.15808642007941    2.43877860087812
H         1.90363881504947    1.43550411160182    2.60032248359711
