30
 energy: -57.478744915644 gnorm: 0.133287191182 xtb: 6.4.1 (79825abcba525fcdf90b791dcacef51065a7a4e7)
C         0.89143393738232    2.11499492517710    0.04613359763369
C         1.89378712395565    0.98465569635076   -0.14891240271777
N         3.19565110855930    1.29535230864509    0.45809939405950
C         4.19766500431613    1.70809897654153   -0.49396162254498
C         4.39164590728298    0.42359978454796    0.30180889675549
S         4.38260271617251   -0.92127978934099   -1.00402292732052
O         3.12432612332266   -1.37936341671418   -1.55346651702514
O         5.35200587784463   -1.95077431091107   -0.68634414490728
C         5.16125401049073    0.21985033721149   -2.17051768931449
C         5.21933889540405   -0.18651210142627   -3.62766440835950
O         6.46144739972789    0.51168355774116   -1.61059196021346
C         4.16724880343715    1.35169404866842   -1.92776785974492
O         3.34519757872124    1.77022732341587   -2.72717165676368
S         1.39621906058391   -0.43024503247068    0.95611707418832
C         1.15927391264951    0.41685751949709    2.50079353302186
O         0.11250651261844   -0.94281181840746    0.51647284263871
O         2.53207432715762   -1.33450452993486    1.05886580820168
H         0.80134540069179    2.60894927335111   -0.92298295183471
H         1.26231170696696    2.87488045253083    0.73796189035600
H        -0.06346896948336    1.64140037739159    0.30091981720432
H         1.89444380025844    0.57038385883115   -1.15115740523490
H         4.78010695061473    2.61278658697472   -0.34180775405334
H         5.01277419698863    0.27744296981122    1.17586501004349
H         4.62610306188466   -1.09505907553066   -3.77408938132280
H         6.25081067730816   -0.42689687900887   -3.91177890091209
H         4.70878212315489    0.62187404334544   -4.15945220088260
H         6.73718834987457   -0.39143657161688   -1.33809424607469
H         1.17255328676673   -0.36080612974213    3.26538527362631
H         0.19626171339568    0.92467903967488    2.56269257000103
H         1.97710305042481    1.13707423802929    2.58502808818010
