30
 energy: -57.471017295453 gnorm: 0.132925557622 xtb: 6.4.1 (79825abcba525fcdf90b791dcacef51065a7a4e7)
C         0.42998134081800    1.41021996594986    0.17197486317871
C         1.67319294146734    0.58820510234339   -0.14288710103026
N         2.87698303996216    1.38125928145224    0.14312034744953
C         3.75208458857509    1.98772464087712   -0.83012602606294
C         4.28405391030733    0.89912346067631    0.09333116313713
S         4.50271757616167   -0.63678137043332   -0.95888666316492
O         3.27143169639122   -1.29086669427050   -1.34759774069658
O         5.65562990927317   -1.32632690142378   -0.41497364730183
C         4.99903560292790    0.45478751692147   -2.31215368135768
C         5.04986887734776   -0.21358853811956   -3.66952992807367
O         6.20601437335856    1.05739465203472   -1.79325755459552
C         3.89652766182425    1.50546949435374   -2.21948427088092
O         3.30478658225425    1.82341825010040   -3.23866814718318
S         1.71705039862153   -0.74818898410504    1.15431586619429
C         1.32921855505275    0.13894560141858    2.64506392964669
O         0.75918573571711   -1.77760515135676    0.79832807140309
O         3.11488635985606   -1.14846563508860    1.21945385211293
H         0.05098534549786    2.02078645929877   -0.64952640174922
H         0.58894373672800    2.00455569272772    1.07480304611015
H        -0.30401237568566    0.63889984576823    0.43152423241899
H         1.57849287831000   -0.07261513358456   -0.99755960885049
H         3.87656547457767    3.06132229491248   -0.71724628546613
H         4.85915106224012    1.12996321342094    0.98052485902779
H         4.34105744489203   -1.04777420723414   -3.64613647795191
H         6.01334139361910   -0.72677085893970   -3.77347481172222
H         4.69488069922815    0.47508413588076   -4.44197278959215
H         6.84196499495017    0.35132657372232   -1.54236172085401
H         0.27559453973993    0.29409495581064    2.88031429598721
H         1.69092907828071    1.13474308311381    2.38687881046005
H         1.89980879274307   -0.16556450320058    3.52617258194299
