30
 energy: -57.471389769006 gnorm: 0.139116776145 xtb: 6.4.1 (79825abcba525fcdf90b791dcacef51065a7a4e7)
C         0.66246735593924    1.11130116669207   -0.63258600756818
C         1.75446463288982    0.17856173433617   -0.12468765780351
N         2.96629448716478    0.89285055356950    0.30087713346625
C         3.76662333549844    1.70590613808255   -0.58186076581242
C         4.41293166422419    0.56190277341964    0.18908626649921
S         4.84014497119854   -0.65345234304041   -1.17267008273146
O         3.76620099154026   -1.60670735772578   -1.35415851510917
O         6.15890550384596   -1.23115575661738   -1.00638511302042
C         5.09487812735951    0.65159733443551   -2.39788116517705
C         5.26796077564239    0.12170733724404   -3.80537533238941
O         6.21186527370642    1.36905628327579   -1.82623558321999
C         3.81517642619476    1.39443900039967   -2.02559923210020
O         2.97183306790246    1.64619635592683   -2.87139765133922
S         1.28555107199801   -0.61102233689874    1.49620261038918
C         1.24694062155288    0.70626170187964    2.68910792652866
O        -0.07599152337391   -1.10112298415339    1.39653926330219
O         2.25362421529173   -1.65186069270516    1.80909178252797
H         0.93841959454623    1.21165523436975   -1.68381060415121
H         0.76999497726185    2.14190141929576   -0.28631494447135
H        -0.30051382059588    0.61578339798603   -0.46472663678798
H         2.00633457838649   -0.58767076925777   -0.84964690614578
H         3.87804255972140    2.75275530546900   -0.31252512714180
H         5.06258142570589    0.67703544102151    1.04689504701361
H         4.77403573643246   -0.84081447832491   -3.97394710263496
H         6.31415971984392    0.07627701625484   -4.13071174071975
H         4.79726029431574    0.82162042219366   -4.50216609280233
H         7.01581186433833    0.87952437161880   -2.10897650843946
H         0.60839487733324    1.54068020769234    2.39663106816847
H         2.27524166862750    1.05742919838929    2.78067773067896
H         0.98706608345935    0.16733097653739    3.60380513230825
