30
 energy: -57.474572640473 gnorm: 0.123424718385 xtb: 6.4.1 (79825abcba525fcdf90b791dcacef51065a7a4e7)
C         0.43060009011761    1.36361330731885   -0.27433884389086
C         1.74020870653894    0.60179724420269   -0.11627830405201
N         2.87769149729765    1.46849892401271    0.22255331120629
C         3.93335697457420    1.95418516377395   -0.63213419848821
C         4.16171208372375    0.71612695567204    0.22570196820363
S         4.44907016249334   -0.70049613480024   -0.96785748363563
O         3.26514458165131   -1.36931253963902   -1.46383496832366
O         5.62493734985323   -1.43520071325869   -0.54587786983553
C         4.96182828889247    0.39787938476925   -2.30943720986647
C         4.91818785898916   -0.16086799620064   -3.71573651201890
O         6.31825870565874    0.66417298963695   -1.88709783995753
C         4.17434626689332    1.68157246175356   -2.06438998762486
O         3.70967363806760    2.35032889784643   -2.97369129730189
S         1.66407684745070   -0.68197885879709    1.23158334656368
C         1.22479202973109    0.21911601098491    2.69950977017511
O         0.52044131304724   -1.51971081507387    0.92461005565893
O         3.00230954847987   -1.24919926001732    1.30776722456026
H         0.13168789217853    1.70423543690983   -1.26727479283675
H         0.45015477368000    2.23899785300885    0.37905402309925
H        -0.42295166058029    0.70024095681960   -0.09424466449193
H         2.01300500069980   -0.01204206541573   -0.96768894896241
H         4.42964751105947    2.87988742114023   -0.35353003802369
H         4.77125370511656    0.65407861371597    1.11774760220491
H         5.75920246511738    0.24120862865509   -4.29006694878998
H         4.02353699341273    0.16169135249824   -4.26162589440877
H         4.96524212936426   -1.25293332024592   -3.66954283001921
H         6.89700093524729   -0.10097748854525   -1.67375253083419
H         0.32917882686378    0.79362365712067    2.46001952373953
H         2.06801846714463    0.82377579046196    3.03486392499479
H         0.93607887828187   -0.48094095836309    3.48768299744187
