30
 energy: -57.472863197693 gnorm: 0.133451893207 xtb: 6.4.1 (79825abcba525fcdf90b791dcacef51065a7a4e7)
C         0.68485117640064    0.80166611593790   -0.78616814628721
C         1.89584438900417    0.18327119115958   -0.09950613557645
N         3.00765876557349    1.04227277325952    0.33157491645027
C         3.98347195232953    1.77252570906787   -0.44000185783227
C         4.39117417024823    0.49596118040332    0.28455246329341
S         4.80785557604086   -0.67424638939584   -1.11936015705270
O         3.76530230388503   -1.59231351700190   -1.52583802187784
O         6.08572162349818   -1.29595879794609   -0.83466154280720
C         4.94107457248954    0.58344732726665   -2.41150761499766
C         4.67509732266396    0.18136288553127   -3.84655641382717
O         6.30289332351018    1.03901450656233   -2.24690343236073
C         4.09633992198948    1.75231639618552   -1.91329836092199
O         3.47175155401880    2.48569549383146   -2.66298440332760
S         1.35193799895275   -0.62127749158059    1.49029744531896
C         0.83903278619951    0.60476763841110    2.67076035592457
O         0.17783400931824   -1.42732771165016    1.21517468722664
O         2.58936405951510   -1.25642586321733    1.91898499965861
H         0.98662769396558    0.94210386601208   -1.82564008280995
H         0.49038538812983    1.76220496579234   -0.30331112378311
H        -0.10022572845440    0.07618118906636   -0.54456257143811
H         2.16951665371279   -0.74822490518470   -0.58276083430258
H         4.24972698046973    2.70638003039819    0.04772101105398
H         4.93235380379760    0.41225149078660    1.21796217801369
H         5.25059063842252   -0.71357098341717   -4.10487297198046
H         4.98372683134055    0.93747277881050   -4.57832521477344
H         3.62336014746341   -0.03864594452176   -4.05246819440025
H         6.83392291848829    0.21312964278546   -2.28974972429657
H         0.51200378971734    0.20159085763198    3.62994654297710
H         0.17239715460432    1.33664607341294    2.21353221401241
H         1.72376469312747    1.20785005293829    2.89028970345208
