30
 energy: -57.469888018636 gnorm: 0.134763728655 xtb: 6.4.1 (79825abcba525fcdf90b791dcacef51065a7a4e7)
C         0.55406094043648    1.40592026261198   -0.40369499073692
C         1.79820457423593    0.54478814004935   -0.22768458770331
N         2.94449943544071    1.32700091266392    0.25604781019583
C         3.92750285681646    1.90666109218978   -0.62628422622697
C         4.31735055773736    0.75347614177516    0.28968537278535
S         4.75582979054892   -0.65287124590145   -0.86958284204736
O         3.59384791347794   -1.45038040152427   -1.19937989513038
O         6.07723933522461   -1.12921930020721   -0.51252458168246
C         4.87866891828944    0.41442179069940   -2.32388059738244
C         4.67490134611584   -0.42749923119109   -3.56542343525078
O         6.20307076763264    0.94237406539176   -2.08636756887403
C         3.94847330379211    1.59716758360697   -2.07111092172330
O         3.38324776361653    2.11529861243883   -3.02087142341940
S         1.55927327901435   -0.65505134964859    1.17727278331987
C         0.97163708517491    0.19752015642078    2.62211070884011
O         0.56271536598096   -1.60783855073457    0.72671918771229
O         2.90653825165486   -1.11474349827123    1.48053826187277
H         0.35372978284248    1.87647109816032   -1.36792684792821
H         0.44450468331902    2.22139319196999    0.31505674414910
H        -0.31992640352628    0.78845431590753   -0.16720121267563
H         2.10751202323674   -0.07756839924063   -1.06022157856304
H         4.17412381750236    2.93999532046537   -0.39770664567442
H         4.85027543107040    0.73686087627054    1.23141326128682
H         3.71100746842865   -0.94351103065907   -3.50654180738099
H         5.53795020195660   -1.03082657181392   -3.87133635606016
H         4.53680120560972    0.20347211759955   -4.44846258550827
H         6.67029204162497    0.18489791009095   -1.66941649376857
H         0.43277789522315    1.08658750450106    2.29237195351124
H         1.88790394773052    0.60204037852483    3.05330104896411
H         0.39168102121170   -0.45324777225737    3.28150751442874
