30
 energy: -57.472225929672 gnorm: 0.135160074898 xtb: 6.4.1 (79825abcba525fcdf90b791dcacef51065a7a4e7)
C         0.53089069694154    1.26139395490749   -0.61113433519544
C         1.72096161452931    0.38335697300320   -0.24616332612051
N         2.85658899824934    1.18591392515523    0.22933490179434
C         3.84934994398224    1.86340496063565   -0.56831355920109
C         4.23268084130060    0.61924684599860    0.22285335029803
S         4.69001603473835   -0.67186748594863   -1.05693105223097
O         3.69617529048495   -1.57102939704323   -1.60353626572860
O         5.89662737493501   -1.32468529938801   -0.58955622277857
C         5.10426578739068    0.53364692583600   -2.33924068079813
C         5.19704884644354   -0.10659202449005   -3.70791384908112
O         6.37305273080786    1.05110033740274   -1.87923202624544
C         3.97911887419050    1.50544478699291   -1.99617023043556
O         3.16862788533684    1.87175095226137   -2.83217791855589
S         1.39222212742446   -0.58531973391939    1.31082221443861
C         1.47091879526953    0.46343753512135    2.74388401517175
O         0.04225983137505   -1.11504931508278    1.28052309187291
O         2.49321500440895   -1.51087570410238    1.53346668243507
H         0.55748308119509    1.64718952638942   -1.63179508119043
H         0.40829141123778    2.10885015573609    0.06738621117222
H        -0.34608728479773    0.60419987123818   -0.60385859368672
H         1.85613274738598   -0.21947955724845   -1.13747330123833
H         4.02222129726253    2.92549822002842   -0.41691120968071
H         4.58523969373876    0.59113262178443    1.24561833892966
H         4.20971882980744   -0.49458155003801   -3.97896771237601
H         6.02246665151258   -0.82299774648811   -3.79672944944726
H         5.49136807715333    0.70647890169241   -4.37817237533145
H         6.94559689183723    0.26050814776995   -1.76490260319241
H         2.49629451248528    0.51786300920571    3.11155251964426
H         0.83435803955732   -0.02408985093124    3.48294702677086
H         1.05069169910120    1.44584467280712    2.51380254278303
