30
 energy: -57.474666846518 gnorm: 0.134494513245 xtb: 6.4.1 (79825abcba525fcdf90b791dcacef51065a7a4e7)
C         1.09572340342915    1.65739270212896   -0.54393908826246
C         1.97975768455427    0.49292336180236   -0.11625213998918
N         3.20856106931699    1.04451133856089    0.47165833102774
C         4.36917782959051    1.60651950754466   -0.17481441971558
C         4.43048469490885    0.19785169825767    0.40199883236005
S         4.69738192836088   -0.89230247484211   -1.09943699855389
O         3.66096533133138   -1.82821388400598   -1.48009340507928
O         5.96358113983662   -1.57353895005035   -0.91728959407663
C         4.93547976196396    0.41491226697126   -2.32568529275726
C         4.29574113059931    0.16262724401548   -3.67433928893890
O         6.37767955536407    0.48164089205462   -2.39491931445062
C         4.47799774935524    1.70179336029373   -1.64547117272430
O         4.26950789565056    2.77768520766882   -2.18303364836557
S         1.11011730798512   -0.52093607418591    1.18237129432642
C         0.84986824142419    0.65368853833369    2.49091191024240
O        -0.13686301926134   -1.05987774309322    0.67393092485795
O         2.04299631910224   -1.55327710966001    1.60947604335635
H         1.20622778440830    1.95121441521987   -1.58928655076577
H         1.26372174538677    2.55251999588533    0.05948979082318
H         0.05959492928158    1.30714930192719   -0.47455087048437
H         2.26675610749757   -0.21376773354271   -0.88718417551534
H         4.74141118124416    2.46871807858012    0.37190780351615
H         5.06173363210542   -0.19269564807396    1.18948469067510
H         3.21287991411086    0.13748511315106   -3.51432025987102
H         4.66434206673729   -0.77150592962387   -4.11475782430186
H         4.50537162628630    0.98005272783603   -4.37063323988065
H         6.77070397515063   -0.37722753749005   -2.12327456531882
H         0.73593584241139    0.09154050103241    3.41856842823690
H        -0.09038676368894    1.17805349859821    2.31750892107972
H         1.62586999600858    1.41402902582446    2.61072718577069
