30
 energy: -57.475020450330 gnorm: 0.119123279891 xtb: 6.4.1 (79825abcba525fcdf90b791dcacef51065a7a4e7)
C         0.65046692268837    1.76447764802161   -0.28722549203410
C         1.69135608492372    0.65438373973499   -0.21894002853731
N         3.01520413505195    1.13528240236234    0.20059342787357
C         4.20784313315571    1.63051794376322   -0.44218634194263
C         4.21523273296355    0.25519107177493    0.21297689339226
S         4.34785865740748   -0.92701036786875   -1.23574314479492
O         3.09778862914019   -1.31323839040767   -1.85472754383106
O         5.35964748302510   -1.94609130599506   -1.04009376241525
C         5.16924160031984    0.38244866036052   -2.17373725462289
C         5.24339326851864   -0.05943160832753   -3.61977466983587
O         6.39296492843163    0.48145079922678   -1.41092266739915
C         4.27925911910647    1.59507556103502   -1.91778571998637
O         3.95194662323987    2.45238764947965   -2.72268774712666
S         1.42391262803702   -0.47254609170158    1.24020744153212
C         1.28542866767838    0.63906426874630    2.62038703084161
O         0.17124039824262   -1.19629226714634    1.13564442246663
O         2.63291129576690   -1.27112762054286    1.37804608417931
H         0.72285114952905    2.33626710286734   -1.21410793854350
H         0.79613709149695    2.47747036348628    0.52765137574073
H        -0.34945483978827    1.33268203549962   -0.16574960684427
H         1.63811572742541    0.02472153641652   -1.10030692849712
H         4.63934116849418    2.49606341973825    0.05328272249595
H         4.73613861704584    0.01113128932849    1.12961648032795
H         4.36671483136434   -0.70427592434680   -3.73993022240500
H         6.10225326745177   -0.69405687816266   -3.86887342913748
H         5.13800545655481    0.85019930336931   -4.21845626003607
H         6.75153548023386   -0.43171955709237   -1.35209152385832
H         1.49083743742739    0.23110001070483    3.61079604955740
H         0.27355382315547    1.02270974075700    2.48610324990771
H         2.04219512556529    1.37307076244062    2.33195839854610
