30
 energy: -57.475595812962 gnorm: 0.122636343771 xtb: 6.4.1 (79825abcba525fcdf90b791dcacef51065a7a4e7)
C         1.01302041886423    2.38411223697572    0.23335646214486
C         1.83298115521935    1.14156401042997   -0.08938169977044
N         3.23281981311470    1.31246697955272    0.32424786691217
C         4.40529420956660    1.57014422624513   -0.47557591094372
C         4.29764611525809    0.27282501004351    0.31574717390219
S         4.19066062513806   -0.96800956696797   -1.08527505803506
O         2.89331696575084   -0.80118902758610   -1.70500014247390
O         4.82642410596125   -2.25148735738435   -0.86389117077260
C         5.30188512983574    0.04773010926462   -2.08659361216671
C         5.53210193906221   -0.41471095233823   -3.50959372890406
O         6.52061926509705    0.11666636785737   -1.31256441313921
C         4.44522808670281    1.30033188675997   -1.92793830277392
O         3.84046832273407    1.87599620359377   -2.81836571716457
S         1.21999434765081   -0.30964896588973    0.90502077382162
C         1.39001955971405    0.36450805056526    2.54097763242236
O        -0.14763974808902   -0.59757197981839    0.51693961802818
O         2.25358959992884   -1.32443802304111    0.76256463613976
H         0.92053244030007    2.99630564936131   -0.66550889394930
H         1.50513612447469    2.84559025853926    1.09269509757159
H         0.00962086016727    2.06853961238247    0.54100986858826
H         1.69700530738486    0.89429097117178   -1.13651265909861
H         4.99398118010094    2.43078202557735   -0.16963582022819
H         4.70662245596295   -0.17863070280979    1.21020919931177
H         6.41588504558434   -1.05738775255866   -3.57830022075905
H         5.73700485634953    0.47616204489853   -4.11523390280448
H         4.73322694422619   -1.10925381177711   -3.78593336047687
H         6.67378662733297   -0.84286952889945   -1.16510368693940
H         1.38530963426254   -0.42712780556617    3.29119634112818
H         0.59647513615050    1.09874458359909    2.68342286565288
H         2.35324311126934    0.87523162215817    2.46342826950665
