30
 energy: -57.473698952221 gnorm: 0.135936181656 xtb: 6.4.1 (79825abcba525fcdf90b791dcacef51065a7a4e7)
C         0.59088540118990    1.24956864080536   -0.60350899116202
C         1.70902946065830    0.28851398663647   -0.22069129252713
N         2.87997787826063    1.07873397204996    0.18462089227687
C         3.85922315656352    1.78810609741451   -0.60194209732905
C         4.29462623712157    0.62728579801100    0.28334738181536
S         4.72550768184542   -0.66383904766537   -1.00557371325908
O         3.63507684656330   -1.50428235881777   -1.45234487068312
O         5.97230909720527   -1.26309711379633   -0.57325755804105
C         5.07004335590165    0.58034143913383   -2.27147099353482
C         4.97303803287635    0.09075495989332   -3.70069312224737
O         6.31660672860646    1.24033458740523   -1.95575735226483
C         3.88849161145780    1.52117018837502   -2.05508996904766
O         3.05128169691134    1.85133691278438   -2.87974394747240
S         1.39022097822393   -0.67719473352218    1.34019819696939
C         1.56081466393692    0.51658346541865    2.64616240249200
O         0.07104105141149   -1.27986870991786    1.31833347204335
O         2.51928596773340   -1.59171911028438    1.42544573224461
H         0.71577452155617    1.55545270574910   -1.64376443124740
H         0.47997410546547    2.11754072719775    0.05065144029022
H        -0.32652992691951    0.66108590796072   -0.48912119406457
H         1.96301187394322   -0.45163352593188   -0.97155159090669
H         4.11771839424595    2.80285318378222   -0.31156681858276
H         4.72401908140834    0.59525099775610    1.27618773173019
H         5.06654688517433   -0.99895605487133   -3.75180701307476
H         5.83458475584748    0.49974221345086   -4.24190157890702
H         4.01044155921217    0.31712786829287   -4.16879350488424
H         6.97907901587008    0.51490838985638   -1.92744932691261
H         2.55847915269171    0.87795104209447    2.39393895932449
H         1.70666172758497   -0.11091087190740    3.52598407396565
H         0.78868293043646    1.29015407073010    2.65345521451839
