30
 energy: -57.474192191029 gnorm: 0.134536059858 xtb: 6.4.1 (79825abcba525fcdf90b791dcacef51065a7a4e7)
C         0.86781171124970    1.15707604276242   -0.68643732679002
C         1.90328122099488    0.21429897897445   -0.08694093790103
N         3.02876213696308    1.02950664837493    0.39115393345371
C         3.84167746917223    1.79632487241897   -0.52097012341527
C         4.43951726689689    0.59544614973235    0.20103772365894
S         4.86982287768590   -0.66231548153703   -1.12064770384010
O         3.75624023938109   -1.52717815800133   -1.44765704035443
O         6.16350284933346   -1.27757957875364   -0.90073069548830
C         4.94461161267959    0.63096794131784   -2.38200033834386
C         5.04678837132077    0.06094451798780   -3.78071905588709
O         6.14941635548927    1.36767133428291   -2.07394199504866
C         3.79195573522694    1.54465445242400   -1.97628441793213
O         2.86570809672506    1.77069431058506   -2.73848914419636
S         1.28147740533428   -0.65861649995979    1.43686573763608
C         1.30286370179669    0.53272808863289    2.75595322369223
O        -0.07316895424754   -1.15342799511613    1.28186738218792
O         2.28333672867043   -1.66163071509648    1.76648689567299
H         0.96079097138667    1.16089082070885   -1.77392711256897
H         0.86404924231375    2.14219980771739   -0.21408181077178
H        -0.12474423057794    0.71009874299184   -0.55958555870146
H         2.16419978698816   -0.53232296321840   -0.82896102327139
H         4.11769919743032    2.78400068715879   -0.16158506768143
H         5.15621772887704    0.59648504113545    1.01188642627099
H         6.00479311037991   -0.45030579756247   -3.92099259615901
H         4.97162180261266    0.84245500422119   -4.54624584850427
H         4.19719561674384   -0.61092571321585   -3.93478779729385
H         6.87293144983402    0.76634145976409   -2.35826985881897
H         1.36153155013990    0.07596907707406    3.74462248691011
H         0.34588450662522    1.05341565639107    2.80266467801014
H         2.02474991267466    1.27013200783140    2.39572018928745
