30
 energy: -57.470131510349 gnorm: 0.126949591511 xtb: 6.4.1 (79825abcba525fcdf90b791dcacef51065a7a4e7)
C         0.59378422748906    1.69783924572049   -0.36867422504715
C         1.72732794912467    0.71256475912514   -0.11424457042345
N         3.00912513590449    1.33522958816455    0.24510204639021
C         4.07853533926000    1.88000787721132   -0.55514183755586
C         4.31153957995500    0.61535104760260    0.26166267009009
S         4.76764108437191   -0.74041581890427   -0.94988477249622
O         3.57578036360269   -1.49441677924980   -1.27536813871577
O         6.06529008651846   -1.29369650849595   -0.61745611113684
C         5.05594755406721    0.40922970901515   -2.31530792175554
C         4.78491072380397   -0.21291457893869   -3.66854713412813
O         6.46019822037068    0.72621510108672   -2.18574471092139
C         4.10536270500178    1.55963362287115   -1.99749775256510
O         3.15684413310001    1.85618229467353   -2.70626862189877
S         1.42638073259970   -0.58268363611939    1.19050466799800
C         0.77893211902232    0.26389791601594    2.61312937830748
O         0.46166338349868   -1.58403221618019    0.77752631198833
O         2.76959456020706   -1.08381629723615    1.44160703123591
H         0.75456643417930    2.15513838690362   -1.34659053314975
H         0.62805453243162    2.54935294556481    0.31495775587894
H        -0.29759434263949    1.06040334287074   -0.35574791172843
H         1.83167484052979    0.02631241828114   -0.94748288109171
H         4.48202908849756    2.82745268611606   -0.20816886220844
H         4.79703720353511    0.51091315662955    1.22318284225002
H         4.17005079874591   -1.08952980117410   -3.43981223107877
H         5.72655935386883   -0.59820374111974   -4.07755818810274
H         4.33672235107590    0.44436024692607   -4.41959414941909
H         6.91863696603780   -0.01251572944028   -1.72746016982495
H         0.78693563263883    1.30190157641677    2.27843254866797
H         1.45367209366027    0.09887235542936    3.45372393822856
H        -0.21388257946372   -0.13135657769298    2.84279204478741
