30
 energy: -57.472711638849 gnorm: 0.140858943041 xtb: 6.4.1 (79825abcba525fcdf90b791dcacef51065a7a4e7)
C         0.82675249576087    1.74628616833629   -0.44492089887353
C         1.77527328395395    0.60251500926823   -0.10948466228201
N         3.07967531996348    1.13698367697801    0.30611622654883
C         4.12587431113451    1.67396705584488   -0.52930483970941
C         4.39902231382150    0.44900365986012    0.33421835996427
S         4.65582187419950   -0.77375354920172   -1.06324306481261
O         3.50710536079712   -1.52514159337546   -1.52243281314431
O         5.83898584904234   -1.57365806029167   -0.81667249214733
C         5.07443429035767    0.39716493264748   -2.37583568774014
C         5.06587835853955   -0.02445680895563   -3.82977610814909
O         6.39090329812247    0.73544053454532   -1.88424107000023
C         4.10617106327882    1.51428428471450   -1.99827152355834
O         3.28584547517845    2.05838736196343   -2.72007656791828
S         1.30485701649189   -0.54426058337992    1.28127861046736
C         1.00779696724536    0.44918536036427    2.72508316166098
O         0.04671626533553   -1.16249262199400    0.90871900136439
O         2.43129247453370   -1.43126324919426    1.53183630211008
H         1.08966957960455    2.15053703041424   -1.42407848426500
H         0.85710945622124    2.48869950570117    0.35601830845158
H        -0.18214156639648    1.34236660598738   -0.58644522046973
H         1.94747351810528   -0.14580164025329   -0.87530833599964
H         4.41106126239565    2.68306274800139   -0.24427254820014
H         4.91793202404978    0.33754615119744    1.27732290822849
H         5.02218870822175    0.79864915987113   -4.55048021531913
H         4.12009496342889   -0.57818908109121   -3.79352333729248
H         5.93795495722922   -0.66413605685768   -3.99484427345444
H         7.01430528614931   -0.02336876264802   -1.84560875401107
H        -0.01537777308182    0.40057384155303    3.09963355099425
H         1.38618315110949    1.46677165574891    2.62286422734255
H         1.60830415213476   -0.00623717331826    3.51668502962115
