30
 energy: -57.476191701550 gnorm: 0.122633688330 xtb: 6.4.1 (79825abcba525fcdf90b791dcacef51065a7a4e7)
C         1.09484905552206    1.76162386118430   -0.59678339450453
C         1.96027494289374    0.55993083001150   -0.23986110515024
N         3.15309110237504    0.99354909194508    0.50109121731515
C         4.34201789545270    1.54081415528679   -0.10534581565120
C         4.35947295988168    0.12343655851058    0.45282401601446
S         4.56610991564088   -0.92764272591694   -1.08552351625170
O         3.35447938675979   -1.60167990321541   -1.50099215832436
O         5.72287763335772   -1.79814764304144   -1.01747276856531
C         4.92830257287047    0.41720655925494   -2.23851211840857
C         4.44374809912222    0.04400644277957   -3.62332599690721
O         6.34682004514741    0.68154622991026   -2.15413783581176
C         4.31372547978420    1.64817302905282   -1.57892090414997
O         3.93345693895441    2.64711697798098   -2.16840506455859
S         1.35221146364771   -0.52513064284970    1.14704501578726
C         0.98492584897686    0.73156971224410    2.34935803422888
O         0.12468424924675   -1.11151116440127    0.64379111492915
O         2.37780737476829   -1.45043066427718    1.60571987450073
H         1.69129621031667    2.47468415602796   -1.16870081502871
H         0.76373862074582    2.24257499256744    0.32660959342080
H         0.17194108681069    1.48121039875491   -1.11703001350250
H         2.11037173262078   -0.11445931879233   -1.07579502375580
H         4.78442282351056    2.39975460150494    0.39199540903780
H         4.58422188476069   -0.25941387681087    1.43976358818160
H         3.47304268876991   -0.44212804633053   -3.48109064226383
H         5.22505916507421   -0.65686397244724   -3.94077457932721
H         4.36108022719872    0.90530106923626   -4.29287227832177
H         6.82170403188327   -0.17282750785240   -2.25633744072917
H         0.73370899555346    0.21206391584775    3.27485327621945
H         0.08178155338131    1.21571607309702    1.97647820695236
H         1.81933732862071    1.42844820310884    2.46236215841571
