30
 energy: -57.473651409065 gnorm: 0.134900907793 xtb: 6.4.1 (79825abcba525fcdf90b791dcacef51065a7a4e7)
C         0.41560630875513    1.66374144647440   -0.02672699845148
C         1.65962115401535    0.78815700314428   -0.10547043041651
N         2.87185056604159    1.57930853853887    0.14835011960235
C         3.90074321105612    1.88088102219321   -0.81666046550867
C         4.15977303211127    0.84334767659273    0.26834883734958
S         4.54510218211535   -0.60078950646941   -0.86300832550870
O         3.43581366485894   -1.40023096767837   -1.33773052537833
O         5.74854308178649   -1.29269386445409   -0.44645146827824
C         5.04465597772564    0.38541155028030   -2.29375614321958
C         5.30970065718254   -0.40078358393024   -3.56002206138995
O         6.30200904076551    1.00478054322847   -1.94072409578841
C         3.85653573496931    1.33706750489067   -2.19000045385251
O         3.03602832223856    1.54163451613776   -3.07028711650869
S         1.66422690323970   -0.61775353217609    1.11682352737626
C         1.05602163340678    0.01396979262057    2.66303279264007
O         0.71628486202914   -1.59796612156467    0.62233507052897
O         3.03824131766637   -1.04824263203502    1.32936353164164
H         0.15401897974510    2.11682187669045   -0.98463301018371
H         0.45934649398472    2.32039894620011    0.84533403797507
H        -0.46266512405974    1.02761492410097    0.13148083167286
H         1.66023911522394    0.23125646952164   -1.03604982413866
H         4.42680666954596    2.83159903873100   -0.80111253239312
H         4.77402085747860    1.05420363844424    1.13401376180877
H         4.64951014279624   -1.27072657234426   -3.63859885566143
H         6.35642174049165   -0.62152929211189   -3.80103290978528
H         4.92612722519565    0.21716145578743   -4.37731636771117
H         6.88800251665121    0.28109481535251   -1.62639201457419
H         0.02630898758554    0.29756076417248    2.44211278311305
H         1.77577095689973    0.73062596537408    3.05985961143162
H         1.04944686852816   -0.84662018916055    3.33682336543348
