30
 energy: -57.481529375600 gnorm: 0.118133415018 xtb: 6.4.1 (79825abcba525fcdf90b791dcacef51065a7a4e7)
C         0.68462681241590    2.05789175942750    0.07071587996119
C         1.76842074954602    1.02762650869629   -0.21974210152517
N         3.07800867485890    1.47119809467302    0.27832340421306
C         4.22036894148908    1.77302280671395   -0.54915874956966
C         4.19567220749473    0.48858147827764    0.26963183597184
S         4.18350793320443   -0.91556036920722   -0.97222858566825
O         2.91863162209120   -1.13109112845026   -1.64202202976239
O         5.09232602353607   -1.99784777626867   -0.65094223835238
C         5.09457083111844    0.15362003547730   -2.11065007722518
C         5.25920990858879   -0.42842529369028   -3.49841736865012
O         6.37668622183037    0.27184125787788   -1.45384708675437
C         4.43067215614513    1.52211247256413   -1.99018840647785
O         4.11894753164392    2.19356404517232   -2.96073737920198
S         1.46061460272929   -0.40339943907944    0.93265900609794
C         1.38468648894072    0.20289518845195    2.60190819195761
O         0.16396850335213   -0.99225818631166    0.65718861820316
O         2.63790212770936   -1.25855811797302    0.89938071105419
H         0.70121027698939    2.81683074226867   -0.71352281958524
H         0.89421474468189    2.54966278188752    1.02352062479143
H        -0.29847536762002    1.57516655847935    0.10988038422990
H         1.88717154655809    0.57262599907702   -1.19697769688884
H         4.73228271673425    2.67224043038386   -0.21719328615198
H         4.88977500833017    0.45539040815661    1.09924374953781
H         4.87100545682204   -1.44987840741094   -3.56739179245653
H         6.27938929484145   -0.42846590135154   -3.90050435086582
H         4.73007197121608    0.20361321037861   -4.21778862582297
H         6.70571552198401   -0.59384727201938   -1.12485296421061
H         0.53296912603009    0.88389549604455    2.62071611031429
H         2.37267492578796    0.61809438698780    2.80339059146932
H         1.15684627866972   -0.69319484402327    3.18480061160781
