30
 energy: -57.468755402362 gnorm: 0.137959050130 xtb: 6.4.1 (79825abcba525fcdf90b791dcacef51065a7a4e7)
C         0.52014421333119    1.76626243796517    0.05825330412912
C         1.71387361026056    0.82957152429823   -0.07606656940840
N         3.02065562022711    1.44196505969251    0.20167562073066
C         3.94679458041317    1.89362373800813   -0.80782056029243
C         4.38538976386053    0.84849035589802    0.21009277742201
S         4.57210950995525   -0.65981725109817   -0.88723291645349
O         3.41277212541319   -1.44144492628703   -1.26137705658126
O         5.77990692289278   -1.30432822949856   -0.41146798936704
C         5.05647461914567    0.30260113732473   -2.33924087909600
C         5.16238508938960   -0.36279254798940   -3.69490125883137
O         6.29045051935242    0.91845718107137   -1.90656188316527
C         3.92265179123971    1.30858113755094   -2.16461546989631
O         3.05497353296836    1.54604637795580   -2.98967873938650
S         1.61131725683044   -0.64519671120172    1.05757756079703
C         0.96492010361956    0.12352165137083    2.52420426847390
O         0.55201563883656   -1.58353037326783    0.73923860759107
O         2.91812203684847   -1.20014273304336    1.37805518790898
H         0.40900652874094    2.38284286538660   -0.83548643837931
H         0.78418155039481    2.47207547748063    0.84927477387136
H        -0.36700471671681    1.21119634745273    0.38370036863084
H         1.77501883408608    0.39704007519090   -1.06868654135018
H         4.20526522969021    2.94235864789440   -0.68866836987513
H         4.87046197642977    0.91218810284541    1.17538234151788
H         4.27592114565296   -0.91758564658939   -4.01926667733041
H         6.13234748801652   -0.86980739746327   -3.76234612793642
H         5.19758981547224    0.40154487415130   -4.47688819288150
H         6.92341556882861    0.18920410166131   -1.72364322375441
H         1.60317566879120    0.86547610813459    3.00552644780432
H         0.72632931710392   -0.65110812475501    3.25367656363428
H         0.09824333620150    0.70226022651305    2.19468170041637
