30
 energy: -57.472506331710 gnorm: 0.128447659016 xtb: 6.4.1 (79825abcba525fcdf90b791dcacef51065a7a4e7)
C         0.96068181685835    2.12741417046448    0.14482493452295
C         1.82150178117844    0.89831649332383   -0.11733813051394
N         3.15936384325101    1.21474745379581    0.40212537041168
C         4.22388646189906    1.67187839788332   -0.45731303231898
C         4.38543937055240    0.37475358263563    0.32510945300580
S         4.46987198135098   -0.84659315458255   -1.09445493731477
O         3.18078361881545   -1.23990656386435   -1.62222817361803
O         5.50480026836551   -1.83497398768530   -0.86522137611063
C         5.19168007387847    0.32744493458777   -2.26484524825425
C         5.20119720432329   -0.27226434799838   -3.65482332369827
O         6.41296226485339    0.71138876067630   -1.59384357164118
C         4.18078661698561    1.41442047654739   -1.91182599963376
O         3.30697499888110    1.79530582864459   -2.67429849183929
S         1.32838789671325   -0.50484211687270    1.00453208845108
C         1.22727843372637    0.32919047769344    2.57103060666520
O        -0.01597816532930   -0.91727459095484    0.64885103348325
O         2.30360776260179   -1.58375744246033    1.06195736640501
H         1.09199161925250    2.85998122737132   -0.65354651813300
H         1.39918791239813    2.57047230952499    1.04205100166644
H        -0.07288648069807    1.83395764224838    0.36085090449081
H         1.64589878691923    0.44669932179846   -1.08755568487139
H         4.68864571651733    2.62711611043799   -0.22847029538232
H         4.90124588261442    0.08196220571696    1.23029079789400
H         4.25614564584688   -0.78370631503714   -3.86489782671456
H         6.09511434034314   -0.87064968062241   -3.86763091321911
H         5.32392161581453    0.49460891446487   -4.42540670705075
H         7.15117808411963    0.08655448894567   -1.76858217864492
H         1.04829304202570   -0.51911574243088    3.23275442317052
H         0.32547483729405    0.93688676306026    2.49002331584237
H         2.07823446176261    0.97346652828525    2.80647548213255
