30
 energy: -57.473772006738 gnorm: 0.134522291563 xtb: 6.4.1 (79825abcba525fcdf90b791dcacef51065a7a4e7)
C         0.34801099353504    1.30681141481832   -0.15585998937895
C         1.67860727065943    0.56597023447661   -0.18886709272208
N         2.78620903096672    1.47956476930332    0.12483522680272
C         3.74956100516291    1.94249135737821   -0.84390797594644
C         4.15652875873627    0.90303210738773    0.19277846104067
S         4.39828058072734   -0.58486386410695   -0.92153810502235
O         3.17821949360215   -1.18537075521392   -1.41735183094726
O         5.48390234233347   -1.40628558894181   -0.42433291905200
C         5.05857769191402    0.48209712275522   -2.22337827054423
C         5.21941359028412   -0.13812516436063   -3.59496019478723
O         6.29449369211721    1.01188428766033   -1.69326177233991
C         3.91256460037808    1.48926579284944   -2.24096438471310
O         3.28674357874760    1.79459865677224   -3.24351342006919
S         1.76902331020789   -0.73413086965293    1.14236175017446
C         1.62503639434703    0.12550544596726    2.69156937780256
O         0.63903210530124   -1.63515624372576    1.01906203528219
O         3.12803300908469   -1.25509666874556    1.15221078703884
H         0.14478474538755    1.94280614560171   -1.01928545223285
H         0.13773476559612    1.77239241575566    0.80986303902834
H        -0.27963388506944    0.41316914077542   -0.24812466319585
H         1.75010677001076    0.03973867127637   -1.13442764372005
H         4.05662572496885    2.97781514954878   -0.72280823494490
H         4.71121952776802    0.97492981101357    1.11921533788207
H         6.13708195100993    0.30457248813706   -3.99587190475916
H         4.28934717503508    0.08129321603568   -4.13280028307073
H         5.10264282861342   -1.22588943334302   -3.58557311130372
H         6.62324176114363    0.31338635873300   -1.08503533903684
H         2.22994329350243    1.03138977107332    2.63680756974682
H         1.84133120230374   -0.55434866867235    3.51626424360583
H         0.60378983463682    0.48735503336722    2.83569578306057
