30
 energy: -57.472623097842 gnorm: 0.126085799756 xtb: 6.4.1 (79825abcba525fcdf90b791dcacef51065a7a4e7)
C         0.44742785120465    1.03694594775822   -0.47327841661027
C         1.77920658067095    0.35927937490936   -0.17738147589042
N         2.87741633682919    1.21284973635011    0.29716960809656
C         3.82118071788903    1.77371155658499   -0.63854096460394
C         4.23229101676323    0.59971193170306    0.24096473026746
S         4.69188640886094   -0.66557814841053   -1.06356311389426
O         3.57354908557330   -1.46951609535390   -1.50852855026232
O         5.95955368187143   -1.25430500785600   -0.68023345857955
C         4.96242377258881    0.54953502118996   -2.37485841173549
C         5.01937967487265    0.02326295550045   -3.79315830452112
O         6.18828401892176    1.17612563827070   -1.93458899808459
C         3.83767464008238    1.54268600074878   -2.09802899733247
O         2.98232272309941    2.04354450879436   -2.81041831940840
S         1.51172765017336   -0.68790815227152    1.34000492363190
C         1.58351900986256    0.56262642472156    2.60125841603659
O         0.23742117275535   -1.38060632132716    1.32445129281417
O         2.72483866637237   -1.44362323966011    1.61507963653361
H         0.52967683271623    1.54029813763313   -1.43824754204589
H         0.06819375710540    1.64353813918198    0.35245165089505
H        -0.26571759802781    0.22131811723446   -0.63826990338561
H         2.20553607771980   -0.30410895349546   -0.92187841467810
H         4.04247268869183    2.81278192736585   -0.41004179189835
H         4.76318652950857    0.69885022758354    1.17875891568166
H         4.04158763090973   -0.36834997871260   -4.09213766730105
H         5.78379048974493   -0.75770052619379   -3.88377877236868
H         5.44800848026046    0.80402565847834   -4.42848623691611
H         6.83126308946431    0.45045168152751   -1.77368757766051
H         0.65694843787885    1.13447039616099    2.53802021295232
H         2.46900171399860    1.19557417909202    2.53489424001845
H         1.73735405004935   -0.00174698887239    3.52455117075172
