30
 energy: -57.468870088537 gnorm: 0.127913269260 xtb: 6.4.1 (79825abcba525fcdf90b791dcacef51065a7a4e7)
C         0.18147690450147    0.65712470164924   -0.11407067248838
C         1.65323336078948    0.26425133152380   -0.11182009052641
N         2.49228616506524    1.46128060962938    0.03969507972644
C         3.18503741109816    2.03211961461495   -1.08948620947129
C         3.96226531674059    1.24412241079844   -0.04268409325665
S         4.53052789168399   -0.34603207901252   -0.85660421307828
O         3.52072606380505   -1.28315377523332   -1.30055470984661
O         5.82494402974627   -0.79916152206430   -0.38790192262647
C         4.72480536990904    0.60610005210947   -2.38136206292696
C         5.02092847284886   -0.23210778284316   -3.60671898159594
O         5.76215889810300    1.54058000463161   -2.00742199276325
C         3.43376261780250    1.41874437406608   -2.41071916037377
O         2.76030249948570    1.42394509723105   -3.42876099666121
S         2.11762860126340   -0.81021003283231    1.33748251464590
C         1.89390436908997    0.12351923444371    2.83342643789226
O         1.29312194787324   -1.99630849513290    1.46896970635532
O         3.55280949784052   -1.04783746566651    1.29059195660496
H        -0.11175942128945    1.00179687110408   -1.10730140215406
H        -0.01347924741944    1.40733486738498    0.65585109539205
H        -0.40504928839168   -0.24807623148766    0.07995425175457
H         1.79540673048893   -0.49399959814113   -0.87402668804730
H         3.15341206437266    3.08228717369755   -1.36696956455355
H         4.58677085462111    1.54502163590762    0.78833259602909
H         5.30948343109040    0.33614887904001   -4.49702625078155
H         4.20379084477936   -0.91193321225810   -3.87609493736407
H         5.91598283738977   -0.77647878339874   -3.29129461446463
H         6.66976857387449    1.16480171093677   -1.97660974935517
H         2.81937137398019    0.66715282540514    3.02710391387101
H         1.83587548595423   -0.60398586188187    3.64365829772310
H         1.03200785738652    0.78505840572259    2.71446254143565
