30
 energy: -57.468618058036 gnorm: 0.128903145727 xtb: 6.4.1 (79825abcba525fcdf90b791dcacef51065a7a4e7)
C         0.31177717415523    0.82905065882765    0.01853250848543
C         1.73210843898508    0.27866616231521    0.03108618951691
N         2.61817817127682    1.44985571691842    0.08623363487688
C         3.25693279543101    1.94748343111062   -1.10757147577623
C         4.10032480877310    1.34147925517163    0.00699835766763
S         4.79322547896915   -0.13550354304642   -0.91625148307275
O         3.81097724043691   -1.18718188477475   -1.07165385302180
O         6.16972275128625   -0.42388499107489   -0.56609058690525
C         4.70548462007754    0.64391207395385   -2.54536126297588
C         4.93904858719971   -0.46454691393812   -3.54962586659676
O         5.60253979350009    1.77704479369060   -2.56746459046158
C         3.29123153951002    1.19114532907457   -2.37663666215037
O         2.33367106737419    1.13251984870870   -3.13137216938480
S         2.11445825756215   -0.92596339356243    1.39976599203257
C         1.35730987669474   -0.21849803076335    2.84405481065105
O         1.27365756338693   -2.04531134904713    1.02023468284830
O         3.55022640824077   -1.02225774904968    1.61818518929112
H         0.18633871849106    1.12923017041969   -1.02331737839459
H         0.25175619892926    1.70060844196950    0.67457156138981
H        -0.48940245948635    0.11151274775061    0.22900321813613
H         1.97426279935057   -0.38052348049577   -0.79531980820932
H         3.26127934537163    3.02945479532621   -1.20840952269939
H         4.63041032796165    1.96992546875292    0.71070361243240
H         6.01834960823515   -0.61265591655601   -3.65916882644792
H         4.46726666436627   -0.13361450432574   -4.48254895044288
H         4.60225246748287   -1.37705595455015   -3.04877633096523
H         6.45096286254449    1.29553305711060   -2.44813820107944
H         0.27730597954350   -0.14191486475019    2.71266141919200
H         2.00434050918511    0.64659012998701    2.99264995736327
H         1.61283842409165   -0.87602960581517    3.67892574046529
