30
 energy: -57.475919609699 gnorm: 0.129782491269 xtb: 6.4.1 (79825abcba525fcdf90b791dcacef51065a7a4e7)
C         0.82713407819250    2.04321031510082   -0.15640787446614
C         1.84935052246757    0.91411636437193   -0.13107075637034
N         3.12718864863269    1.41136843466741    0.39781096203409
C         4.19278819015146    1.81811005691230   -0.48529171420412
C         4.32332040544016    0.52960500934482    0.31691345499287
S         4.45035861249448   -0.82183386302943   -0.97593382937501
O         3.17015135271089   -1.33639573423183   -1.41329441496751
O         5.50172054667505   -1.77076165197237   -0.66820767646320
C         5.01188241948961    0.31648165656450   -2.26361182908599
C         5.04955999775262   -0.31623589405657   -3.63839535801268
O         6.37655342686622    0.59620061509820   -1.87810352996565
C         4.07181660260323    1.46677894632636   -1.91556527761398
O         3.13653997807592    1.74304526760323   -2.64967647852251
S         1.55080152282346   -0.51153437575948    1.03039239106112
C         0.96325605238905    0.20012062488808    2.54963186534346
O         0.49955733661188   -1.31555483174974    0.43678777995943
O         2.86379048999209   -1.10487670919866    1.23634038429574
H         1.20696296628974    2.87512922552455   -0.75217181807307
H         0.67397593011154    2.50058454567989    0.82387480045516
H        -0.20960580758558    1.87282315493359   -0.46815457683536
H         1.98599034746467    0.40392983928701   -1.07825387732761
H         4.71113529611169    2.72650138398653   -0.19034981834744
H         4.90407479499480    0.25535588629696    1.18791757680173
H         5.81346751889338   -1.09733284526408   -3.71022489540964
H         5.22749238867143    0.54981204796477   -4.28704083063466
H         4.05997860455415   -0.74050052209382   -3.83251600149532
H         6.80002140091743   -0.17706267554145   -1.44376172693385
H        -0.11404985394124    0.32778436491744    2.43715263841757
H         1.58244857710539    1.08489608894055    2.70089216577093
H         1.06866471311689   -0.50390592195570    3.37902183151486
