30
 energy: -57.476433195709 gnorm: 0.137331910705 xtb: 6.4.1 (79825abcba525fcdf90b791dcacef51065a7a4e7)
C         0.24679671377465    1.00587281317849   -0.23215794872927
C         1.62341813969282    0.35920230669167   -0.14758650122205
N         2.64271096020804    1.39908702796912    0.05122858247378
C         3.57113671091606    2.01543333612836   -0.86471612057492
C         4.07585303029853    1.01523277236789    0.16760056403009
S         4.56960128962631   -0.47391825532391   -0.85837287891151
O         3.50748615634159   -1.41773049253238   -1.13426914760638
O         5.87637354709505   -1.03220103020113   -0.57343801219321
C         4.85231401862129    0.50587081721563   -2.35144780087156
C         4.87165184997246   -0.24191920138293   -3.66758494430232
O         6.09697985320743    1.17285989149030   -2.04303438569265
C         3.76797920554985    1.57554523042271   -2.26167761255474
O         2.98570169044207    1.88384718866788   -3.14653723017798
S         1.94786177430466   -0.79220239749556    1.28056325832970
C         1.42192479849465    0.09157942470129    2.73041534966632
O         1.08066889285006   -1.93245694161645    1.05313030778579
O         3.39239485509044   -0.93701275990904    1.38431230591702
H         0.12459148214516    1.56529311040650   -1.16135574286355
H         0.18647682427196    1.72896606553931    0.58460418404151
H        -0.49009579181120    0.19628875980339   -0.28325071363193
H         1.85443352974898   -0.15392219490910   -1.07465271291243
H         3.60607280013961    3.08914902877909   -0.70112147936313
H         4.63944901779322    1.39165131876068    1.01128587780357
H         5.82546488380583   -0.58552616869510   -4.08110831728623
H         4.37458541258527    0.33048277527659   -4.45987331181633
H         4.39062166746435   -1.16052447623713   -3.31868818938373
H         6.66512046894989    0.45888935320779   -1.67782710877718
H         1.80706768078083   -0.34296170829272    3.65365778100365
H         0.34440829216654    0.25866278286732    2.71824928424338
H         1.95418634167542    1.04088454743218    2.62957134050514
