30
 energy: -57.473911433524 gnorm: 0.121859820001 xtb: 6.4.1 (79825abcba525fcdf90b791dcacef51065a7a4e7)
C         0.77859346073482    1.43789868431538   -0.48273406492755
C         1.83062743308433    0.41853667003028   -0.06494556345439
N         3.09348525952132    1.04986306636032    0.34305273278036
C         3.98603435928900    1.69824777224285   -0.58633696886771
C         4.46881205796603    0.49591320667683    0.21499614657493
S         4.80043182851610   -0.71761188115793   -1.17473937319301
O         3.69492145203263   -1.57844240635799   -1.53779097005057
O         6.11410005798047   -1.29048388760520   -0.95883496768914
C         5.04062913737709    0.55543896037202   -2.43602151671761
C         4.97062538187587   -0.06988869292775   -3.81291862439731
O         6.27490931013636    1.24847322368473   -2.14371642706108
C         3.90529311323721    1.49814201517322   -2.04824957463083
O         2.96465369457466    1.88371541866720   -2.72390879832573
S         1.35070408322821   -0.57676574157086    1.43493939632690
C         0.73502593950689    0.39317509067546    2.79137085526613
O         0.31991140025071   -1.56523890451075    1.18133159672162
O         2.63002642853548   -1.13094072159687    1.85283191356336
H         1.02400438173063    1.79097875501125   -1.48592979466520
H         0.66844788602306    2.33175894765516    0.13571924934412
H        -0.17260813947732    0.89378737154317   -0.46838937877571
H         1.87675050621106   -0.37257410676744   -0.80530563630685
H         4.23283923649932    2.70968715406155   -0.27500619566673
H         5.17698287627924    0.49655472610003    1.03330533381884
H         5.37097313059422   -1.08086342802791   -3.68455041877062
H         5.49014982400461    0.68084695915866   -4.42031491828588
H         3.92655422473024   -0.06389774190270   -4.13977357770792
H         7.01686388722548    0.61918083180890   -2.00440190903154
H         0.34720445862398   -0.39976317126145    3.43198074804428
H        -0.04686982696968    1.11742723632685    2.56070979812102
H         1.63621888209153    0.92225064626729    3.11165575559289
