30
 energy: -57.474595761176 gnorm: 0.125575547207 xtb: 6.4.1 (79825abcba525fcdf90b791dcacef51065a7a4e7)
C         0.66696829340267    1.02469531050842   -0.69504735142489
C         1.84799172269057    0.24804842050240   -0.12722263566106
N         3.01614305230466    1.01978805510831    0.31963967357865
C         3.92757318271764    1.76875333502028   -0.51051571768400
C         4.42119568083541    0.53633463385918    0.23667800304100
S         4.80135501761165   -0.69084501599297   -1.12841855032028
O         3.68925560821286   -1.58635741382758   -1.36565534324729
O         6.17904786089559   -1.11036204691068   -0.96566365363034
C         4.85479712933264    0.57151928832939   -2.42177315798132
C         4.75799061036986    0.03022717054913   -3.83223839528667
O         6.12907590854805    1.20020828403401   -2.15691462991242
C         3.83919203645121    1.62021666438987   -1.97812450547817
O         3.08677052911162    2.29685415090301   -2.66077254117662
S         1.49326986506665   -0.66483556239279    1.45752448258651
C         1.01841271961317    0.65558296229710    2.54874247655771
O         0.42891387995581   -1.64062294115632    1.31999268709294
O         2.70324989632878   -1.27702782155501    1.98627649408943
H         0.98582396797783    1.34737000988961   -1.68777381163635
H         0.47478365062050    1.92599029290510   -0.10824658673925
H        -0.15201615592733    0.31748196243430   -0.86871693697037
H         2.10782331973009   -0.61308431087891   -0.73307294097839
H         4.07542754954361    2.76606662760652   -0.10510924234129
H         4.91426708304356    0.56714767853353    1.19952140619419
H         5.64291306434616    0.32836501194435   -4.40394873210085
H         3.77185312340878    0.28233872488582   -4.24017533183040
H         4.81947070495203   -1.05445996644236   -3.70328628796593
H         6.69827343008412    0.43227101690687   -1.92844016945191
H         0.39069851686754    0.12953063550862    3.26900732510927
H         0.33854830960532    1.28210756177520    1.97050550673867
H         1.87468581610839    1.18477027326807    2.97466412973383
