30
 energy: -57.477885569776 gnorm: 0.123749363559 xtb: 6.4.1 (79825abcba525fcdf90b791dcacef51065a7a4e7)
C         0.99675458026890    1.99003473698852   -0.45675711522279
C         1.94199854773015    0.79856392908676   -0.37112575175834
N         3.15063405608567    1.17554839870925    0.37515080084531
C         4.41832174601414    1.55701892272474   -0.19778864937308
C         4.25212653733285    0.17596452461269    0.42340773917235
S         4.38094740347473   -1.04728259468740   -0.99117753055370
O         3.06798687268218   -1.48667746228561   -1.41314391113901
O         5.47855389676461   -1.95889593662266   -0.73673234183825
C         5.04650469714564    0.17100344961555   -2.14962409490816
C         4.70102206601598   -0.10546170889660   -3.59737739436920
O         6.46324762501032    0.15212698463684   -1.86384540822303
C         4.50574014372270    1.51556512390785   -1.67236986499354
O         4.21457397392527    2.47643051573796   -2.36659220567212
S         1.24994456306934   -0.31972397755814    0.94838234849132
C         1.27173205184721    0.59631791177703    2.47158412825742
O        -0.12180111789051   -0.68917759344955    0.65555564336236
O         2.30288334264379   -1.30736707144635    1.13356003004608
H         1.50146684995233    2.76907905468347   -1.03090797539256
H         0.84483379872123    2.36955449122016    0.55640010837409
H         0.08972613925104    1.58417751003038   -0.91895479774738
H         2.15133553596637    0.33225115024361   -1.32760210436032
H         5.03373182038183    2.35343717285666    0.21189132057490
H         4.71865846260044   -0.06167691300569    1.37051433498457
H         5.55445995085389   -0.08449342349204   -4.28296527235175
H         4.07935415645555    0.70440490678758   -3.99748362747685
H         4.16127136415769   -1.05585416714169   -3.64614201235071
H         6.69607100900235   -0.73858926422577   -1.51985139733044
H         1.08354314314288   -0.16358147095984    3.23097565154658
H         0.49256423947997    1.35499223638265    2.55169325582822
H         2.22349310567324    1.13092971574336    2.52629423662717
