30
 energy: -57.474908835333 gnorm: 0.119414602302 xtb: 6.4.1 (79825abcba525fcdf90b791dcacef51065a7a4e7)
C         0.73975339424434    1.22887609217347   -0.73543070023897
C         1.78151650153437    0.27279969093215   -0.16880108713507
N         2.91416662118832    1.04754443746540    0.35724080121526
C         3.80109315809760    1.77906852779928   -0.51399124653285
C         4.32302422385867    0.57734473511506    0.26335355557040
S         4.91846976260573   -0.69469113305382   -0.97815729961531
O         3.93179081024430   -1.69062174203540   -1.33812353893100
O         6.26110598476623   -1.13114143865242   -0.65049839556877
C         4.94107010773240    0.50103326985911   -2.33422448739076
C         4.76702289548185   -0.05714101028820   -3.73062338800754
O         6.17949854967006    1.24220639825021   -2.25584279116061
C         3.83479424988523    1.48351440000502   -1.96149328476543
O         3.18045513755039    2.10738786265515   -2.78161945000201
S         1.25656545865795   -0.66283372397844    1.35423032873630
C         1.52487269605920    0.49673542774136    2.67451882324280
O        -0.13738776448128   -1.04332461965101    1.22753874529937
O         2.30285519014447   -1.65544452691384    1.55021839026126
H         0.86429719214243    1.43105659577413   -1.80075019302995
H         0.76529041758020    2.15239316845478   -0.15227823534795
H        -0.26188640845719    0.78689460790636   -0.78459831321824
H         2.01738111077331   -0.57384592343165   -0.80415585488731
H         4.08750688018308    2.77697580924321   -0.19305904432554
H         4.99900904026954    0.75123971922436    1.09036108674493
H         5.73686759901469   -0.16009976892535   -4.22824510752271
H         4.23499230291995    0.72487665438195   -4.28544925577492
H         4.22577478216058   -1.00791934506266   -3.73569000808062
H         6.83357802047624    0.52104258661314   -2.12161594453350
H         2.59635020538604    0.62125192771317    2.83566847746880
H         1.03162930336751    0.08682317970221    3.55644262233464
H         0.98131876668550    1.43721436536321    2.55327289902786
