30
 energy: -57.472560483090 gnorm: 0.138225774955 xtb: 6.4.1 (79825abcba525fcdf90b791dcacef51065a7a4e7)
C         1.25780834624395    2.05519846349428   -0.38235168232527
C         2.10822102177716    0.80571672495367   -0.19257472062240
N         3.36224412759386    1.03697884003732    0.53803421586463
C         4.56555477129339    1.41857834216952   -0.15998953166160
C         4.45969116209680    0.03429467568194    0.46720191554798
S         4.51008329248434   -1.04829395221382   -1.06232157798837
O         3.22889191855550   -1.47439205191632   -1.58383660273383
O         5.47359140917710   -2.10500250489205   -0.82665144929104
C         5.05999892971158    0.16906585360743   -2.28085091153425
C         4.84823309651830   -0.13103153441350   -3.74948212117804
O         6.46094178918253    0.29671198477901   -1.94880894230869
C         4.42091549319728    1.39240000267632   -1.63041263875910
O         3.86341451283687    2.24828609440749   -2.29872125404370
S         1.14043887498285   -0.19521216183948    1.04522465053450
C         0.54493715294293    0.83525229149123    2.36555483924919
O         0.03342171737706   -0.83861456747663    0.36369987267973
O         2.15918054197586   -1.04643629437158    1.64187582140923
H         1.63836029328607    2.72770890174013   -1.15319774549298
H         1.25809197436884    2.45209540241096    0.63552623887894
H         0.25307862540745    1.67027062347948   -0.59066903845268
H         2.35712733533933    0.17217657819874   -1.03684313212295
H         5.14706682725513    2.20438297973510    0.31456701581183
H         5.05005290974183   -0.26544247102022    1.32321996039716
H         5.01153744782291    0.76425971163403   -4.35826114961303
H         3.83413982986632   -0.53268032159248   -3.86232281381000
H         5.56135378773505   -0.89550009764492   -4.07197449218232
H         6.87984102169339   -0.58822336970579   -1.86321165644064
H        -0.35195850824591    1.36345074240932    2.03979082565538
H         1.28193127642469    1.55154919938710    2.73006147158474
H         0.16168963741605    0.14825318935581    3.12437343164852
