30
 energy: -57.477459814196 gnorm: 0.132862746664 xtb: 6.4.1 (79825abcba525fcdf90b791dcacef51065a7a4e7)
C         0.45793598806144    1.40543297890899   -0.03803819482013
C         1.75100107146107    0.62507179277237   -0.23663511122149
N         2.90348117350148    1.39683117217491    0.24918647248574
C         3.85411136879977    1.89329599526004   -0.71550869032708
C         4.24211750487154    0.74771170052435    0.21072311235427
S         4.56862154622516   -0.67667329054423   -0.96337318223326
O         3.39475406245790   -1.41998930529493   -1.36896569044645
O         5.74640597174724   -1.42725742092095   -0.57611541325652
C         4.91389833774003    0.48527420234467   -2.30495724412843
C         5.17882496046206   -0.16037136210548   -3.64836207411392
O         6.06503707956905    1.16580276651861   -1.75637108723081
C         3.77573653619615    1.48700029125234   -2.13414574963466
O         2.91093260593423    1.68697769162197   -2.97206457984428
S         1.68709074750991   -0.65468092673543    1.11568017825199
C         1.35178304525402    0.19616555311998    2.63994397151525
O         0.61067614971102   -1.61284016569398    0.95077974618703
O         3.05794991725533   -1.12426234266909    1.25223843822135
H         0.08978033236307    1.93800516532693   -0.91674292712548
H         0.47741889572760    2.01169159922920    0.87062765280488
H        -0.26585036266162    0.59657842097280    0.11340485815028
H         1.80649136477495    0.08260799972150   -1.17406270622123
H         4.35387102077879    2.84052311058493   -0.53152445725620
H         4.92725597811724    0.87430067310733    1.03879119920758
H         4.31833458999620   -0.79771273994998   -3.87678913319952
H         6.15575002669152   -0.65486898987711   -3.70777111335461
H         5.13741942618777    0.59379371651055   -4.43986396848021
H         6.83314205438565    0.55566133464962   -1.81683781001087
H         0.33329449743160    0.58335694073650    2.59196970471736
H         2.02442478607518    1.05123043026177    2.56562151581498
H         1.60544792678286   -0.51081908980056    3.43397100072160
