30
 energy: -57.476050212563 gnorm: 0.122130241759 xtb: 6.4.1 (79825abcba525fcdf90b791dcacef51065a7a4e7)
C         1.04442209943651    2.07125987648492   -0.32550338550469
C         2.01984237253358    0.91618101128678   -0.13903695152692
N         3.32150865551738    1.36614170291148    0.37384294906396
C         4.50534967070985    1.75237567181189   -0.35427490028048
C         4.46275421495925    0.41100324885577    0.36664334983687
S         4.37196345066381   -0.96609910826053   -0.90194868442598
O         3.07287395010105   -1.47761573563613   -1.28366331543033
O         5.35292043493585   -1.99154806222915   -0.60750156650904
C         4.96003806981919    0.16767749984142   -2.18175518496704
C         4.68149611018943   -0.14033279328442   -3.63754530797905
O         6.39124467584579    0.16435403451802   -1.97970839453805
C         4.47563261184565    1.56864723819669   -1.82025945311757
O         3.94216179721659    2.27727965804844   -2.65884977827857
S         1.46869771306090   -0.40610926939850    1.05192744067955
C         0.50037976899524    0.27332579165777    2.37875804574784
O         0.49316903775598   -1.10068195410187    0.23348852694655
O         2.66963851825445   -1.04559467873848    1.56885037571305
H         1.31071338321296    2.77612454659147   -1.11515424295863
H         0.98547566512096    2.66670867831953    0.58859111924712
H         0.01773524203632    1.75953449322880   -0.54863732705806
H         2.05165559052511    0.32726536955139   -1.04913745100886
H         5.03738229825358    2.61993387673277    0.02668856025496
H         4.97335339130294    0.10359833661659    1.26993009495491
H         5.39155865679852    0.47302340339560   -4.20184309011608
H         3.65760818409594    0.21422881784371   -3.80600747505817
H         4.83460400996580   -1.19420326197433   -3.88828349672039
H         6.71038057091303   -0.76357871192329   -1.92487097602194
H        -0.36188882102943    0.74806206940810    1.90901772561254
H         1.02957780761842    1.08324134813075    2.88184144896355
H         0.10043269865589   -0.46832799879522    3.07492187481123
