30
 energy: -57.468213657978 gnorm: 0.122930856848 xtb: 6.4.1 (79825abcba525fcdf90b791dcacef51065a7a4e7)
C         1.05011050848557    2.09027545696864   -0.21493659081744
C         1.93727886734784    0.86235323542677   -0.05505882148434
N         3.27068806022783    1.25159896291952    0.42489272050897
C         4.40314547503544    1.70710715959966   -0.34378402611531
C         4.46464263976391    0.36467038193733    0.37378036037334
S         4.57861409248459   -0.91828660319828   -0.98820778508373
O         3.36574329400033   -1.60752361027696   -1.37406475549907
O         5.75891125662295   -1.70889678365138   -0.70123147658907
C         4.93958473667187    0.27646178112704   -2.29643648522205
C         4.37633949872604   -0.17998236441534   -3.62541895080670
O         6.37218617250349    0.43980826840014   -2.19565279148230
C         4.42133936611571    1.62994214760773   -1.81940752697530
O         3.99351721763913    2.47455153540319   -2.58985407555049
S         1.29633524999987   -0.48695190713119    1.05812358647218
C         0.59948150816729    0.29032471630588    2.49686853074262
O         0.33538078428170   -1.32452411615719    0.36604773949841
O         2.43305657883046   -1.19379874064895    1.62964953010467
H         1.58287868565863    2.93642629249685   -0.65252151656943
H         0.78406417286432    2.41007818885359    0.79528530878525
H         0.20115113427065    1.76322848010524   -0.82596493286345
H         1.96769042217747    0.28236721115450   -0.97092340753704
H         4.90939558916289    2.48879283966831    0.21615126697777
H         5.20753958192602    0.08848924200475    1.11064163544466
H         5.22330581230462   -0.59079096049225   -4.18462463010021
H         3.91568745840985    0.66095054347524   -4.15746355869022
H         3.65695696907867   -0.99722597091249   -3.51791873599209
H         6.88046789795426   -0.29891393269206   -2.59796267314232
H         0.13483791733657   -0.55979605691799    2.99780627855623
H        -0.22039919044219    0.98280591477201    2.30354984979887
H         1.42621742407664    0.76830998631968    3.02855442225772
