30
 energy: -57.475832957253 gnorm: 0.129286674695 xtb: 6.4.1 (79825abcba525fcdf90b791dcacef51065a7a4e7)
C         0.48297862118658    1.56224475870346    0.05414280145263
C         1.70977315843637    0.67524691127131   -0.11506595139746
N         2.92062580709008    1.45883847621241    0.16718509299211
C         3.80508719789433    1.93817336589149   -0.86663208236493
C         4.27576085431730    0.84874579077052    0.08858064070869
S         4.54205617684823   -0.68358237075988   -0.95785942049988
O         3.29279789832817   -1.33928974195455   -1.28095452309075
O         5.84455021293394   -1.23157488794866   -0.63578061840191
C         4.94826048298098    0.40610705363296   -2.34233074719500
C         5.15675735271144   -0.22325177387542   -3.70329267473557
O         6.11770899660750    1.02261511390232   -1.75795562284589
C         3.75223071249893    1.34547722568402   -2.21928407876913
O         3.06056968895127    1.70838672388619   -3.15730672078229
S         1.73624764171944   -0.65314447981280    1.19079913363754
C         1.10866732787246    0.01712058458403    2.71284998393896
O         0.83589284570701   -1.68706762494358    0.71720243072559
O         3.10033755817872   -1.06040233075942    1.49379990819799
H         0.22370789435498    2.02338249792771   -0.90054269882163
H         0.63174693175018    2.39224343619486    0.74881747833444
H        -0.33270368004548    0.87452133485458    0.30463482033158
H         1.79094878646473    0.04723505105635   -0.99547963382483
H         4.19937300522930    2.94704297652494   -0.77962678970726
H         4.89098850097989    1.00646272346681    0.96479783874945
H         4.44765128691047   -1.03862367841661   -3.87982560568134
H         6.16450871586389   -0.65516482934526   -3.68517567826161
H         4.98826372216743    0.55859553468177   -4.44980410502347
H         6.63562515963900    0.23316768828876   -1.48510098369476
H         0.01963451301370   -0.04129158393396    2.72438990924315
H         1.45466055482555    1.04704151692005    2.80589966572863
H         1.43535241723271   -0.65180195870685    3.51314465726833
