30
 energy: -57.471212292328 gnorm: 0.142990140660 xtb: 6.4.1 (79825abcba525fcdf90b791dcacef51065a7a4e7)
C         0.51454216264451    1.31804309140263   -0.41681285644803
C         1.81615335717606    0.53249456038243   -0.32119187624260
N         2.91315654848710    1.36574271835728    0.19079180927949
C         3.98670922987131    1.88784520341980   -0.61896437694397
C         4.25990770125834    0.75666767140676    0.36420246192738
S         4.61101615343077   -0.66449215448594   -0.80669778806751
O         3.48721184679912   -1.54378568882764   -1.04938192987868
O         5.87095022268469   -1.30375525153434   -0.48354134201457
C         4.87523640250154    0.28396684848682   -2.32320661304081
C         4.61351503497665   -0.26124533102689   -3.71102016577346
O         6.19683633710513    0.82272921181445   -2.09452554642424
C         4.06072162876713    1.54591681178508   -2.05470714941554
O         3.50798312588999    2.33933162245527   -2.79966204114720
S         1.63108018083898   -0.63531742748549    1.11845087923329
C         1.00103937728409    0.28449920157938    2.50291361063521
O         0.74279595795349   -1.73442662178384    0.79158732148345
O         2.99587860830965   -0.96572064476584    1.50129379056582
H         0.75171169788608    2.10791146607001   -1.13176201280537
H         0.24358959022100    1.79905202190269    0.52595850587181
H        -0.25784584102831    0.67974411239356   -0.86070311990041
H         2.04056599666493    0.03163112090133   -1.25654815844055
H         4.24796862305216    2.92749375699447   -0.44085296885342
H         4.89577243630137    0.94894986655832    1.21850919942591
H         3.77468230678807   -0.94014101038126   -3.52585283258197
H         5.44307519814481   -0.93274865208134   -3.96272067811624
H         4.36025352242944    0.54964067132543   -4.40042362510400
H         6.76386376593727    0.11824843840848   -1.70968690673335
H        -0.02931076925395   -0.04866588973914    2.63297982569501
H         1.18918305432928    1.33899928346421    2.29861427869098
H         1.57890788774142    0.05158165107807    3.40095006853070
