30
 energy: -57.478941018534 gnorm: 0.135012341135 xtb: 6.4.1 (79825abcba525fcdf90b791dcacef51065a7a4e7)
C         0.54960719700838    1.77785335738977   -0.10351408368867
C         1.73205874763979    0.81985080042795   -0.17030488301369
N         2.96061788806345    1.51178982694693    0.24407246831983
C         3.97656067831531    1.90784713227297   -0.70028463322491
C         4.21420383570884    0.71040827303170    0.21102375355689
S         4.45492795602704   -0.75597874790579   -0.93166641663941
O         3.25701367402042   -1.40368262125471   -1.42204371298850
O         5.60100126590784   -1.51694219512013   -0.47562710429203
C         5.04179387041281    0.31476648213104   -2.26518765403157
C         5.19798966964069   -0.16004699143005   -3.69415087441892
O         6.22290758068139    0.84225779874791   -1.62027710512430
C         3.93446918226456    1.34543211414094   -2.06617913178156
O         3.09487818715349    1.73445362666787   -2.86225320405356
S         1.63919170010847   -0.58387974610741    1.05097495366704
C         1.34692546773528    0.10793535914604    2.66209984333788
O         0.50840151501657   -1.38716103860547    0.62673163949717
O         2.91286795144836   -1.27486076599111    1.18773666658845
H         0.64368180702677    2.63011132030750   -0.77886589344845
H         0.47707264055773    2.02437391362225    0.95835647325467
H        -0.28758950520778    1.14065255929595   -0.41031076462611
H         1.85377633155728    0.30492006944890   -1.11695570027556
H         4.40045705850624    2.89136451321946   -0.51628826100054
H         4.92283443230602    0.69031513930348    1.02868832532555
H         4.52259500253166    0.34862333396624   -4.38979674304989
H         4.90173063303899   -1.21240317018457   -3.77910367971800
H         6.20894226838320   -0.09013847739307   -4.10651270046511
H         6.65316938765918    0.02508668194146   -1.28409235374400
H         0.29849445904527    0.26797815150504    2.91649392206073
H         1.83452368846020    1.08321208146306    2.64831677697575
H         1.81123470961681   -0.61048253591877    3.34250026687659
