30
 energy: -57.472982473301 gnorm: 0.137528151609 xtb: 6.4.1 (79825abcba525fcdf90b791dcacef51065a7a4e7)
C         0.70719747756261    1.93517053181923    0.01332440316780
C         1.82171004206107    0.91773617284250   -0.19430674290772
N         3.12037254787436    1.46242788108835    0.22596955855604
C         4.34165728867384    1.77983441058918   -0.47297857942591
C         4.26343189434560    0.52259088281526    0.38378098027248
S         4.23795576753279   -0.80956490300332   -0.93481356637478
O         2.95656564596297   -1.28651768457637   -1.40972855545261
O         5.23496956703346   -1.80680682417374   -0.60015956812106
C         4.94534090195652    0.24407098247314   -2.22269691890066
C         4.79298811629186   -0.40225523973074   -3.58314974343094
O         6.31393155113954    0.42873460035635   -1.79602926833867
C         4.36361593562827    1.62652584042476   -1.94259221453999
O         4.15528094680629    2.52920446300249   -2.73742086824734
S         1.56356654490607   -0.53253520998734    0.94616818283791
C         1.21958906289013    0.14112737348119    2.55477295516592
O         0.48983678269358   -1.29483533503545    0.33794734874789
O         2.79541993516035   -1.28408839613495    1.13620702093875
H         0.50434069745496    2.34678697826818   -0.97698603166677
H         0.96296278955784    2.71052676609600    0.73927862758485
H        -0.21213491481943    1.46403295357312    0.37925432609265
H         1.87761563054320    0.39175066379819   -1.14105403719295
H         4.75401226064366    2.65513931812826    0.02164637451201
H         4.64707454557297    0.55358169881995    1.39521272322128
H         3.78562651301987   -0.75544515565756   -3.82667821169536
H         5.46620379631973   -1.26174256217365   -3.68562956573572
H         5.06713498576510    0.28697638522160   -4.38736233621001
H         6.73721847143307   -0.43978370609496   -1.61597878018009
H         1.92133678329313    0.97500960348020    2.51320149473040
H         1.54374968333489   -0.63771831070766    3.24573313892066
H         0.18919944369088    0.40675277824337    2.80455777822075
