30
 energy: -57.470729845818 gnorm: 0.148381689195 xtb: 6.4.1 (79825abcba525fcdf90b791dcacef51065a7a4e7)
C         0.78017631734884    2.07946619150405   -0.00544805854867
C         1.77453375092015    0.93035046935595   -0.11131555008848
N         3.09256402001993    1.33917441931931    0.39415945016713
C         4.15127608306781    1.74673124105342   -0.49681622296983
C         4.31943955715337    0.49756287264659    0.35882183063498
S         4.39737166648942   -0.76463467718275   -1.02492804602490
O         3.07089728838277   -1.00501285858365   -1.55187480640226
O         5.23382971030322   -1.89352544490423   -0.66930910653074
C         5.15558226587455    0.28954383723326   -2.28310537070485
C         5.31269092959654   -0.30494389291542   -3.66646434847540
O         6.45230824768701    0.64092281656306   -1.74998170345481
C         4.21411318954987    1.44051317576384   -1.94112649909357
O         3.42965386845802    1.85560477596740   -2.77916422397931
S         1.40576734331886   -0.52744722021430    0.98843233512197
C         1.31886055216556    0.03739605184043    2.67162881445872
O         0.11790907171186   -1.12267257202855    0.68667494870588
O         2.62757699246300   -1.31148722245260    0.88416256699613
H         0.76877817603807    2.73140244774049   -0.88074397154190
H         1.09458005203393    2.74883932193724    0.79872395744638
H        -0.20691953568829    1.68679663566632    0.26380976833430
H         1.75546692059713    0.45050205537080   -1.08368304464309
H         4.63839606000568    2.69267245582438   -0.27600272600538
H         4.98242349218571    0.27519587496153    1.18474050168281
H         4.36724224212300   -0.24875002189735   -4.21582366455560
H         5.55606427498197   -1.37145223979758   -3.74242013994899
H         6.11295009225101    0.14359578355513   -4.26257848430716
H         6.77220658719545   -0.15981795538529   -1.27839574938843
H         2.15337829534999    0.66887384736229    2.97879904867788
H         1.25510722472914   -0.85313447312758    3.29772591573443
H         0.41929095106574    0.59388100854302    2.94685800265344
