30
 energy: -57.473982561934 gnorm: 0.125523192032 xtb: 6.4.1 (79825abcba525fcdf90b791dcacef51065a7a4e7)
C         0.45538845358428    1.60999670781154   -0.07701106447524
C         1.66709266935788    0.69346951919878   -0.18733980431089
N         2.90370516561163    1.37723521666734    0.21651602549728
C         3.93951508428978    1.89013623909129   -0.64652637435750
C         4.25437640377469    0.76240282474853    0.32810030070489
S         4.52625878043843   -0.67553815069901   -0.84338822522344
O         3.33799815064837   -1.27410293444583   -1.41325287655260
O         5.68012677838490   -1.50458325506361   -0.55739150310370
C         5.05208019576565    0.36997523080106   -2.22164779652911
C         4.86949882430325   -0.34409781368176   -3.54397323848239
O         6.32811913480933    0.92445709438216   -1.82990707952457
C         4.06874481112813    1.52714741297936   -2.07316183068501
O         3.48996403768773    2.11312024908080   -2.97406881911386
S         1.61070737882279   -0.72677580154487    1.01695755410981
C         1.43654784763514    0.21007210875958    2.51753595913976
O         0.41369053638928   -1.50336244488917    0.75620186338090
O         2.93271965206188   -1.33023812032189    1.09774435153329
H         0.21228134180201    2.13626218654233   -1.00180147633429
H         0.55188725036851    2.46068586557023    0.60167786213554
H        -0.29128107438698    0.87045197328516    0.23380331468883
H         1.56254590489792    0.35781717546276   -1.21326578428187
H         4.27579152398603    2.89095854876915   -0.38938441808755
H         4.64457178489801    0.70917249899330    1.33609353056559
H         4.96825108518110    0.29063445955976   -4.43064655126423
H         3.88846628118917   -0.83388560180323   -3.55506355703402
H         5.62607966081232   -1.12869797158396   -3.63853889445191
H         6.90429539382044    0.16893977248102   -1.57865314677010
H         0.50405279438864    0.77504040972872    2.48922664037458
H         2.29530117586199    0.85075433237231    2.72045390481588
H         1.36416338755007   -0.49242262183555    3.35175039439126
