30
 energy: -57.472026993885 gnorm: 0.133708561907 xtb: 6.4.1 (79825abcba525fcdf90b791dcacef51065a7a4e7)
C         0.38693456537107    1.45782777797869   -0.27228356228498
C         1.68444235507755    0.66821812382234   -0.15647469941977
N         2.85782155069708    1.44646140219896    0.26467189560628
C         3.82854131212119    1.93945630902434   -0.68162119612279
C         4.20258715325918    0.80898807385709    0.26861473627961
S         4.57603157718224   -0.56551644166681   -0.95009623096557
O         3.48237381922741   -1.33801024199045   -1.49978238111368
O         5.77874855071726   -1.28121404788653   -0.57357256536026
C         5.06485233473257    0.54667845317812   -2.28922379011728
C         5.20975795405128   -0.25357360642133   -3.56608707682272
O         6.27166409835439    1.16768137300343   -1.79208493239825
C         3.83408429944240    1.42019710260637   -2.06512736162000
O         2.84051998295265    1.31718417074057   -2.76669915370140
S         1.61151895278515   -0.67803880299750    1.12917013517595
C         1.58522959255834    0.12018360344655    2.71721955498225
O         0.35474213112386   -1.37891090565128    0.94690663462736
O         2.91337996037693   -1.30461210400077    0.95317711293518
H         0.42660985738994    2.13291017143998   -1.12901185608742
H         0.20684379882130    1.98115502585243    0.66968174299519
H        -0.49079397391846    0.80201884477189   -0.24873283062396
H         1.81000366707852    0.12966615898634   -1.08938023051367
H         4.19356795330660    2.93328484693716   -0.43685676765030
H         4.88544023811565    0.92106601005919    1.10065236128370
H         5.62879718700395   -1.26444502158139   -3.52905015644126
H         5.69825280955153    0.28560325388140   -4.38651441174774
H         4.17297974233283   -0.39225210346118   -3.88673306055144
H         6.93524742645278    0.44416353663874   -1.83783589685338
H         0.62642513067958   -0.18556870707402    3.13763262721564
H         1.83738279174325    1.18108828330606    2.71980937840887
H         2.33580505049220   -0.42196574202841    3.29804883244452
