30
 energy: -57.474678822372 gnorm: 0.128676663493 xtb: 6.4.1 (79825abcba525fcdf90b791dcacef51065a7a4e7)
C         0.48159238174126    1.13041297217040   -0.53945317492307
C         1.66304364764745    0.25130183125635   -0.14989171089121
N         2.86760706519508    1.03494836650645    0.15795662254116
C         3.82393209064665    1.78178324442106   -0.62210231671750
C         4.26875311561904    0.53413363100767    0.13044148334688
S         4.79742961470627   -0.70484089232470   -1.17317766889389
O         3.75960089254545   -1.67042444250191   -1.46566493168974
O         6.09177317306888   -1.26574918675692   -0.84064510440878
C         4.98925973215002    0.59296559242055   -2.41739845674560
C         5.05537638436830    0.06372968840088   -3.83419723957866
O         6.21045021201974    1.24215753335539   -1.99736281981543
C         3.93466688601032    1.64572284146258   -2.08940436634130
O         3.39695532308716    2.22546039595328   -3.01932662096455
S         1.44531313770161   -0.63036897531299    1.47671771127632
C         1.02320746774182    0.50391273644731    2.77863280073984
O         0.33185039122320   -1.55397772994874    1.37146921219331
O         2.69972527180574   -1.23522504011856    1.89981234153817
H         0.50744741805365    1.48268688302842   -1.57218176301038
H         0.48347629754144    1.97117292209695    0.15820138122231
H        -0.43889266118027    0.63107995025370   -0.21631049205354
H         1.78235857125809   -0.57762434184507   -0.83892145257301
H         3.90167971883167    2.78649114542376   -0.21544955524092
H         4.82037139174907    0.36651597904357    1.04627872022128
H         5.94289125807014   -0.56857168147823   -3.94068178199589
H         4.98325783961299    0.89574294665871   -4.54482567750428
H         4.15957063684348   -0.53300749282615   -4.03013455717457
H         6.86892224702455    0.52092645910636   -1.88711600358413
H        -0.03074448494112    0.71341063914672    2.96527023888193
H         1.58960551074895    1.41645444219533    2.59003912305011
H         1.49562740394088   -0.01066890059797    3.61927376050861
