30
 energy: -57.469984953517 gnorm: 0.137829848827 xtb: 6.4.1 (79825abcba525fcdf90b791dcacef51065a7a4e7)
C         0.65492593272709    1.50657465935506   -0.37919936874718
C         1.89193812520960    0.64856388964631   -0.14673448315420
N         3.07967217762731    1.39194591384893    0.29656762999662
C         4.05602941304459    1.92669970924790   -0.62080709960511
C         4.43167502542422    0.76995664446742    0.29660933740788
S         4.54328054864587   -0.69674397928221   -0.86542047025370
O         3.43655706486509   -1.58709670920646   -1.14367211166990
O         5.71974781938633   -1.47527636295232   -0.53325583645170
C         4.87316947756809    0.34762788900268   -2.30404708467159
C         4.85263317564773   -0.33064002324864   -3.65730675972600
O         6.13592049607099    0.88228372409323   -1.84711240196354
C         4.01226532585289    1.58295447771321   -2.05735646646830
O         3.37569338343144    2.20775503927769   -2.89065420086769
S         1.56289246886455   -0.66935711639194    1.12818565112083
C         1.08028853600339    0.34570412026730    2.50531862577571
O         0.53310572777166   -1.53640680144206    0.58809882556453
O         2.83778042728551   -1.28189929267768    1.47149674176602
H         0.59826804087544    1.88563260341827   -1.40115763304513
H         0.49513576589861    2.33932673777682    0.30970832360872
H        -0.27984893204022    0.96171871706510   -0.20491415350376
H         2.07925289755120    0.15954424638328   -1.09641314615651
H         4.34020150153150    2.95591652053763   -0.41879664779042
H         5.01939639546120    0.76303605638041    1.20527434973829
H         4.35064370695404   -1.28369151022050   -3.46102617653603
H         5.78407956818368   -0.59135842696986   -4.17390472174598
H         4.30228725228894    0.36099907843210   -4.30206202375637
H         6.73939005005651    0.14238664063472   -1.61410843825587
H         1.25273804546928    1.37983250271053    2.20469048648635
H         1.69874458264083   -0.04082199930639    3.31600744413258
H         0.00267763780620    0.30985255352143    2.68454333842939
