30
 energy: -57.482052139325 gnorm: 0.112251115006 xtb: 6.4.1 (79825abcba525fcdf90b791dcacef51065a7a4e7)
C         0.37258602428163    1.08765160533371   -0.38404011334724
C         1.65323583928033    0.29003040920553   -0.17390180173239
N         2.79509324787467    1.14749021359941    0.17361778496604
C         3.72968071246637    1.84358063450974   -0.67656821246294
C         4.21108139039618    0.68995657095086    0.19419144202069
S         4.77927726479502   -0.60090862098376   -1.04063653135449
O         3.70011885584734   -1.52314658099782   -1.32327254989693
O         6.12230745414531   -1.10976116906114   -0.84605939047975
C         4.95248380529595    0.57041018255204   -2.40709091877490
C         5.01071554257295    0.04335667187671   -3.82504878334007
O         6.18241658098663    1.22001442274633   -2.01406929362676
C         3.78257938831275    1.50501652479044   -2.11404030706641
O         2.98217110013508    1.75807670324049   -3.00020726012403
S         1.60160830418081   -0.70178083531814    1.40224960119597
C         1.31989941833363    0.46568047851858    2.71275533696244
O         0.45572041035794   -1.59009535454834    1.36020300683759
O         2.95987087634210   -1.18400585201508    1.60471329241459
H         0.24227715327252    1.63098333252161   -1.32164555188283
H         0.28801776375990    1.80051948529933    0.43953156922592
H        -0.54827428180066    0.49767575816347   -0.31338483048581
H         1.87132028174248   -0.41716908496446   -0.96663421681051
H         3.89150139896036    2.90192130877422   -0.49061610090434
H         4.71512019474409    0.65924682433190    1.15134244651865
H         5.96213539649472    0.39961814294715   -4.23334359964265
H         4.14342397078507    0.35508513938660   -4.41924623822275
H         4.94970849238552   -1.04782354102970   -3.77446700752376
H         6.77734011900693    0.46220652315564   -1.81988583618806
H         1.63674032349839   -0.09273165992873    3.59441589940741
H         0.25466846037539    0.69556208072689    2.67345981301594
H         2.00238449813010    1.30421213960167    2.55234695267805
