30
 energy: -57.475489905305 gnorm: 0.136923388334 xtb: 6.4.1 (79825abcba525fcdf90b791dcacef51065a7a4e7)
C         0.61799935929266    1.58820295143302   -0.12149740748824
C         1.81579007414912    0.64828728111904   -0.16922113576033
N         2.99154467262494    1.35542875456321    0.35746435036041
C         3.82623557946058    1.88073168654133   -0.69522732814325
C         4.35529661438600    0.77755383910630    0.21246786093230
S         4.69372421727027   -0.67234265253002   -0.92649943508800
O         3.53644255864251   -1.43684367488531   -1.34029431342889
O         5.93649623921786   -1.34508962395074   -0.60486224044021
C         4.99645126736201    0.41340213369008   -2.34025345483655
C         5.00719763368734   -0.27114266124551   -3.69046224692332
O         6.17722055660204    1.12192848373843   -1.90098065035283
C         3.84587432253138    1.38283137101525   -2.08643526286596
O         3.02570882176119    1.73331410212745   -2.91978702481209
S         1.50094386668574   -0.66609339773914    1.11291906828029
C         1.19675365591338    0.22123899674038    2.62283980646409
O         0.36227355240266   -1.50018409989609    0.77877496593248
O         2.75276943699006   -1.34792377530713    1.40694254471709
H         0.63755016905241    2.29837189914264   -0.95009354600341
H         0.67408548531089    2.21919585599072    0.76861776646808
H        -0.27900076886402    0.96801142947250   -0.01286674147815
H         2.06285326322445    0.13668042889975   -1.09298237921242
H         4.17981720504040    2.89186257779631   -0.51235176159922
H         4.98311602046277    0.93114177577377    1.08044816042753
H         6.05605479009912   -0.47698741001930   -3.92785061274931
H         4.52645508729542    0.36924516323593   -4.43961507632366
H         4.51727546288553   -1.24268767891239   -3.57630805908479
H         6.84861026381080    0.44358077001458   -2.13548925189618
H         1.20742071805620   -0.52508469442165    3.41809120371510
H         0.19113382532210    0.64283446985335    2.63246771224652
H         1.94282623294505    0.99837393998173    2.80747206397485
