30
 energy: -57.466384922006 gnorm: 0.135604603197 xtb: 6.4.1 (79825abcba525fcdf90b791dcacef51065a7a4e7)
C         0.34122622295322    0.48119283927823   -0.45844573175011
C         1.77009157772848    0.10942720637869   -0.08353809106438
N         2.64965950206501    1.26494238648050    0.14227260358689
C         3.40677126452484    1.96654442134913   -0.86537227095131
C         4.12113570128198    1.04413622143777    0.11425215774323
S         4.79766656014222   -0.29999933030827   -1.00359632966441
O         4.01758004601084   -1.51061346752796   -1.14805147918791
O         6.20530263656518   -0.37808547525247   -0.66746466743502
C         4.62676053926436    0.67501809324219   -2.51664556623681
C         4.65526767631982   -0.32049602535402   -3.65678583243758
O         5.70063683676081    1.64009565557202   -2.44881270389672
C         3.40751641516294    1.56313293786148   -2.28699407389347
O         2.47400504798787    1.75028469523828   -3.05087593584145
S         2.01171317117457   -0.86564899547273    1.48536394746149
C         1.48312084340450    0.24265455975701    2.77066721097121
O         1.15243706351480   -2.03420669453628    1.47849804920469
O         3.43365457190475   -1.06867011166284    1.72046989499767
H         0.21792063602368    0.56451478198075   -1.53971670330838
H         0.05350523734697    1.44895715466673   -0.04101120377252
H        -0.31039328863388   -0.28256376420691   -0.01899694350433
H         2.11225288304735   -0.73726379727971   -0.66847964521028
H         3.61727622177228    3.02144032576475   -0.71132221431538
H         4.66154574088029    1.47014041016844    0.94948487825923
H         3.58869088800295   -0.23563674255243   -3.88924978185752
H         4.75229403616168   -1.36948257682083   -3.35239624039484
H         5.26364102057672   -0.08935054703394   -4.53622217201398
H         6.57781824334043    1.19694289726200   -2.43973214380541
H         0.94091105289904    1.01337644340648    2.22154614589849
H         2.34943998731148    0.68845015889890    3.26042644548352
H         0.77626321151430   -0.15662429127250    3.50250105004124
