30
 energy: -57.475673944040 gnorm: 0.118535151036 xtb: 6.4.1 (79825abcba525fcdf90b791dcacef51065a7a4e7)
C         0.98360645379242    2.02711404462817   -0.19496966680374
C         1.83133313676713    0.76443353737965   -0.10883611574469
N         3.13265814742847    1.12136654099022    0.47339907729078
C         4.14506754009956    1.58943853595450   -0.44133983616631
C         4.33842458165857    0.26815601806948    0.29190132628043
S         4.57987840773649   -0.94537227245106   -1.11629928579511
O         3.34199741384170   -1.56249405498507   -1.54267960927031
O         5.76518426788114   -1.72897712260436   -0.83075645088387
C         5.11625424321321    0.36550113091869   -2.24017549010708
C         5.08099107448825   -0.05236319753800   -3.69479803844197
O         6.38524922222970    0.73596401216822   -1.65571394494433
C         4.11837633635463    1.47277160970803   -1.91423718365638
O         3.45914229458853    2.02886763647708   -2.77803829724958
S         1.21160063371687   -0.51239650668402    1.09791358518252
C         1.23834584048417    0.45396202843130    2.58961964715197
O        -0.14586080566785   -0.97519739076974    0.88101856472963
O         2.29712055318834   -1.47318104291099    1.22810309315561
H         0.92528769790528    2.46107883846626   -1.19475325065757
H         1.32570708015916    2.78530014487329    0.51335492396529
H        -0.05433680818559    1.89971116290882    0.13288650724969
H         1.87891348462297    0.28071029790212   -1.07830222231284
H         4.66475247739107    2.51768888188466   -0.21969118630533
H         5.03620296089222    0.08575392268204    1.09872920243541
H         4.01962039852194    0.03129089274317   -3.95037760021777
H         5.57891647811546   -1.01129370196326   -3.88178066637996
H         5.56174625755041    0.70169759043482   -4.32505307812099
H         6.92979101088196   -0.07490436706737   -1.54671506524711
H         1.99978763219495    1.22324976181890    2.45567785400582
H         1.36802624878315   -0.26953125812184    3.39513013061800
H         0.22830426243424    0.85644899987515    2.70129922844892
