30
 energy: -57.476816682337 gnorm: 0.134739014056 xtb: 6.4.1 (79825abcba525fcdf90b791dcacef51065a7a4e7)
C         0.48588713694033    1.31637827878011   -0.19545911661287
C         1.72547745732576    0.43119934288632   -0.21265571194817
N         2.92697612489215    1.11986571075882    0.27926409451547
C         3.80932790494978    1.84898442337457   -0.59860439332751
C         4.34624783385544    0.67704379724698    0.21323896467665
S         4.71872415194053   -0.63008187361738   -1.07775425122501
O         3.53922322345206   -1.42376738393364   -1.34947049457412
O         5.98510156269871   -1.27390162648056   -0.79086464285286
C         4.98107819763147    0.55225917938154   -2.42029878613588
C         5.05132107112492   -0.00226988208533   -3.82719050212627
O         6.25314427781561    1.12347763931686   -2.03984687434719
C         3.82433723899451    1.46564824875830   -2.02569165486397
O         2.90283030702523    1.70301637919103   -2.79019547415273
S         1.53883310099814   -0.66266924015271    1.28374784341400
C         1.23045056953239    0.39355507871996    2.67982860809281
O         0.43137883432190   -1.58868152662238    1.14241151138219
O         2.86921237968965   -1.23800047975772    1.41601525255568
H         0.32579278141853    1.76205538782861   -1.17883871738578
H         0.55121037833536    2.13720127270374    0.52258350460256
H        -0.33735745738604    0.65183877445960    0.09037817908946
H         1.97756779348313   -0.29035898691630   -0.98201951902864
H         4.04747131205928    2.86029576675998   -0.28019240054908
H         4.84507164421137    0.72945363721465    1.17217810704360
H         4.11354207766307   -0.32739260551722   -4.28945926163713
H         5.75604803153546   -0.84052590870824   -3.77127388125452
H         5.53910704686951    0.78210677539829   -4.41351185979760
H         6.81228358676022    0.33459287405781   -1.86395456542864
H         0.17539950579567    0.45636086652480    2.94901313384522
H         1.46711187257042    1.42714332503881    2.42528303695716
H         1.85999606627606   -0.00253210730800    3.48072778347644
