30
 energy: -57.475773864094 gnorm: 0.130271386998 xtb: 6.4.1 (79825abcba525fcdf90b791dcacef51065a7a4e7)
C         0.60684997901911    0.93527178401449   -0.62423194167336
C         1.82591228540602    0.19578011211138   -0.08807824257694
N         2.93263514299137    1.06393451681319    0.33773625003001
C         3.82877022222693    1.70647056515363   -0.59226438834062
C         4.31929287589633    0.53170732442852    0.24447710293311
S         4.76098695177637   -0.65312551279952   -1.13937878411869
O         3.71761197310743   -1.55443690126539   -1.57982774016354
O         6.02611001663590   -1.28251214658022   -0.81710970150450
C         5.02525095398344    0.57612322654163   -2.43872397080243
C         4.99695294073256    0.14559934211464   -3.88980262112794
O         6.22854067831536    1.18542353093318   -1.91907670773811
C         3.89532122392981    1.52802526120381   -2.05769202072699
O         3.24704362909143    2.16324372780981   -2.87391406049846
S         1.40519508689446   -0.66757674001884    1.50823632012089
C         1.23716127963041    0.65164467979961    2.68771526604141
O         0.15951312662388   -1.39189347849623    1.34218999485244
O         2.63737776406099   -1.38184781406214    1.80815699405328
H         0.60097099117407    1.19473123518520   -1.68439228672201
H         0.36120840649187    1.79627785194722    0.00181237760825
H        -0.26576557824863    0.29506066254692   -0.45183941485328
H         2.12034324172282   -0.63720382943096   -0.71701766425444
H         3.95947567239064    2.73464754814316   -0.26574132919676
H         4.93491251857930    0.72405381550131    1.11347167031238
H         5.70030362411066   -0.64756438497992   -4.16369265370796
H         5.14005630359270    1.06275697048029   -4.47356904331716
H         3.97893298479225   -0.16949294700235   -4.13740482658789
H         6.96160991554322    0.53086207843878   -1.92761147795868
H         0.15877987709942    0.58968668598612    2.83868672230690
H         1.46196968473642    1.60029022296194    2.19920784795174
H         1.74698321713977    0.52041186120130    3.64558353464113
