30
 energy: -57.472114379460 gnorm: 0.125462601977 xtb: 6.4.1 (79825abcba525fcdf90b791dcacef51065a7a4e7)
C         0.57386730413704    1.69599929491924    0.06543409500004
C         1.79679921512412    0.79395720842073   -0.04029763773593
N         2.98570701717768    1.62612933602785    0.19172299223379
C         3.88106582397084    2.02242506947546   -0.86756627616466
C         4.32897704452306    0.98651194248179    0.15570133076050
S         4.58143375287722   -0.60099350468620   -0.80870101972110
O         3.26483142733524   -1.14627423830588   -1.06210992144328
O         5.72236481229537   -1.43335961405441   -0.48317955387521
C         4.96108589176022    0.33916036153176   -2.30575172096337
C         5.02251919455464   -0.44161787380364   -3.60127946864011
O         6.26294719918049    0.90272050240020   -2.02872571770882
C         3.84521355219748    1.37385111984198   -2.19490067429689
O         3.04106379773686    1.53727239298559   -3.09857171616226
S         1.74102736344562   -0.70068984582164    1.07034534572760
C         0.73152998154675   -0.12134279243758    2.41385683750497
O         1.07954608442012   -1.88812110393308    0.56400633356317
O         3.10956624311411   -0.81882422039432    1.55154731363036
H         0.55005555152078    2.44159697033655   -0.73131607953187
H         0.66097894802596    2.31204997516531    0.96348523342734
H        -0.37968473879301    1.15616495780876    0.04633515246546
H         1.73191102167986    0.35908111127889   -1.03165473540122
H         4.36573722394311    2.99346342407581   -0.81254453508391
H         4.86530255453723    1.27354254222799    1.05074588288461
H         4.32152861297242   -1.27651615432184   -3.70317989249616
H         6.03539809467560   -0.85707516677656   -3.66382140834886
H         4.95300889057218    0.25488744591266   -4.44211434541891
H         6.69142072651518    0.24074348170550   -1.44211604841311
H        -0.33017626454731   -0.08355131465317    2.16709931721910
H         1.17810511193532    0.81676185453172    2.74497163195642
H         0.70612707861085   -0.95553029486045    3.11964574621590
