30
 energy: -57.474481773667 gnorm: 0.131215902263 xtb: 6.4.1 (79825abcba525fcdf90b791dcacef51065a7a4e7)
C         0.67089868559505    2.02069028111954    0.17876054074925
C         1.70193949073063    0.97450741196473   -0.22482072606558
N         3.01851761247711    1.43058584732626    0.24257664100206
C         4.13103920190042    1.88476392303742   -0.55543930836326
C         4.25574441798127    0.60368421096176    0.25948428254564
S         4.23667933837745   -0.79638861302986   -0.98687537646533
O         2.95151184114888   -0.98047411197122   -1.62675494746409
O         5.15263273126396   -1.80608907153773   -0.49488389000806
C         5.09207931212203    0.24980869990056   -2.18810304274535
C         5.35789097751014   -0.36517705707541   -3.54564402828441
O         6.32459985154444    0.37274163852949   -1.44314202682020
C         4.23650458209979    1.49540068563191   -1.97706635569145
O         3.58391158442188    2.01069172134413   -2.87070063700045
S         1.52533580917599   -0.52024420790752    0.87296655479780
C         1.50968248191995    0.07699474377776    2.54712655551571
O         0.31555274176162   -1.30002791343471    0.69326688913324
O         2.71495027325003   -1.35036976214406    0.75414433557454
H         0.80077220374038    2.91599750496138   -0.43185519680238
H         0.78941911806478    2.30744898619931    1.22629339450544
H        -0.33620956000327    1.63704567701192   -0.02022985913290
H         1.62152190424079    0.56016561006315   -1.22380544662581
H         4.51176696560114    2.86718109088577   -0.28944658857799
H         4.78180684476984    0.56449286978671    1.20439631578586
H         4.53522647927603   -0.19082633548898   -4.24682273568393
H         5.68488579008876   -1.37950781485665   -3.28748239452378
H         6.26324859800787    0.05316687953074   -3.99538902513686
H         6.78295527454018   -0.49576075465801   -1.48223093641467
H         1.84961366356197   -0.75076677962326    3.17066105733472
H         0.53036885679796    0.45115285553730    2.84722189692040
H         2.21148408025368    0.89216222976001    2.74110739667266
