30
 energy: -57.474897530750 gnorm: 0.126994139062 xtb: 6.4.1 (79825abcba525fcdf90b791dcacef51065a7a4e7)
C         0.66189782270605    1.27944395887495   -0.45792634792279
C         1.80148474404132    0.32203108957383   -0.13369831399184
N         2.99061544220526    1.04404889699275    0.34012048233743
C         3.88229368328564    1.76829297663504   -0.53234263537926
C         4.39942087578300    0.57180994394040    0.25621609444866
S         4.95266124321105   -0.65407244634447   -1.04958530022699
O         3.98911891326545   -1.71263868881949   -1.26409058871751
O         6.33167833754925   -0.98955715651180   -0.75584541926009
C         4.97151776151525    0.51535489796413   -2.42845075972513
C         4.59270845300514   -0.04009766680791   -3.78482711039331
O         6.24952941471544    1.19052819565404   -2.42477167409995
C         3.88294783509392    1.48734195319850   -1.98314111971958
O         2.98947117769246    1.85760156375823   -2.72785044845989
S         1.36600244732193   -0.66822037613922    1.38299723271596
C         1.03033796899484    0.50822051410242    2.67259689539326
O         0.17400408934599   -1.38083043478783    0.96436077248836
O         2.53244303239928   -1.40586778482033    1.84527679191947
H         0.82600468031739    1.70311786930770   -1.45032903426021
H         0.51305051894491    2.07875421671955    0.27183410614400
H        -0.24701421854211    0.70095838185535   -0.65862691821828
H         2.09888332816610   -0.36488311650170   -0.91844002792973
H         4.15893699800644    2.80413173376738   -0.35526692591401
H         5.08685988361045    0.44362520610195    1.08212935549002
H         4.63286104970210    0.84035210729827   -4.43445977206439
H         3.63310973831996   -0.55276964728071   -3.64779547161460
H         5.34429485315922   -0.71555334223769   -4.20415054919164
H         6.91713029800522    0.61431325671879   -1.99095207065219
H         0.93480018780769    0.06455355546704    3.66434776377397
H         0.18801138591631    1.16402780297565    2.45008979403891
H         1.88743156528558    1.18550472631342    2.63614496105060
