30
 energy: -57.472623923701 gnorm: 0.138589607936 xtb: 6.4.1 (79825abcba525fcdf90b791dcacef51065a7a4e7)
C         0.30099873865322    1.38255341188570    0.14199658019960
C         1.53964711696560    0.55626047695964   -0.17958046426719
N         2.69508109625987    1.45003795028216   -0.01839834442963
C         3.74040142598013    2.00626603068162   -0.84224758286642
C         4.03783782602087    0.81272091747486    0.05652887335476
S         4.39047284939460   -0.63705654207622   -1.07827219635473
O         3.19486419438495   -1.35515183465214   -1.46537417543444
O         5.51819961394702   -1.48333420724075   -0.74276105089021
C         5.08923478096421    0.51395239489575   -2.28496023580028
C         5.45025674378948   -0.20339089976186   -3.56826167501892
O         6.17004661431678    1.04487955955629   -1.48549264606320
C         3.97591966598310    1.55584236786270   -2.22983528555716
O         3.34504292470722    1.83352842055036   -3.23724272187971
S         1.77291767151167   -0.68994315439650    1.18539922908916
C         1.37031304215587    0.18996282413096    2.67651494548071
O         0.87457108484982   -1.82322122830655    1.07322132265462
O         3.18866512714187   -0.99853637664505    1.32265480114953
H         0.07181005414376    2.01723730688765   -0.71587440678389
H         0.48928934556839    1.98941643340725    1.03074099977084
H        -0.61151313634020    0.80559376961946    0.33037657918645
H         1.47498635870199   -0.00932491725453   -1.10264534972542
H         3.93823865563400    3.05652160176212   -0.64559363067022
H         4.60865581770317    0.75760519806021    0.97427901787250
H         6.46185970250354    0.04231011659388   -3.90755077866548
H         4.87501870999152    0.12667058245729   -4.44153170531046
H         5.42363821004277   -1.29499636471853   -3.50011773985705
H         6.68193196543795    0.21198286577562   -1.38464360726494
H         1.83476517504303    1.17609638669100    2.71342613798318
H         1.76145585483191   -0.40698609799600    3.50099415540295
H         0.29645721058648    0.26794184715386    2.86467712465702
