30
 energy: -57.468991122309 gnorm: 0.115787704914 xtb: 6.4.1 (79825abcba525fcdf90b791dcacef51065a7a4e7)
C         0.88795535619434    2.25452550791804   -0.19291625664067
C         1.90683367807427    1.12248246423777   -0.16486127727193
N         3.24167227984212    1.46866072238770    0.34328465905854
C         4.45523696389261    1.62594994698040   -0.42047728819652
C         4.20110850322496    0.33100625654198    0.34067750397265
S         4.07037512280359   -0.94620771406431   -1.02519696566228
O         2.76578291438323   -0.93124178101762   -1.65193775936992
O         4.85559023305907   -2.14485358701985   -0.80792627425009
C         5.16518904278225    0.04608266701079   -2.06727571543238
C         5.23559698681388   -0.41874002698820   -3.50629045857858
O         6.44326316367957   -0.09127458223044   -1.40633257953005
C         4.52864860706640    1.42032317723499   -1.88201022899219
O         4.22500480106645    2.19571205308778   -2.77451077008495
S         1.38969867915099   -0.30207614489038    0.91856492593117
C         1.46894399626976    0.24220453220770    2.60889916053430
O         0.00117183192091   -0.62894688465982    0.65573726100546
O         2.37503951363785   -1.37136403226089    0.85424865409016
H         1.25213538683269    3.06209141889746   -0.83049287163063
H         0.81678309506426    2.72299323113797    0.79149993071692
H        -0.09899906735611    1.94985658841815   -0.55917463135603
H         1.99292269027886    0.69327330857155   -1.15707334254201
H         5.05679794749787    2.46118637566860   -0.07211865544466
H         4.47212392958417    0.00663853999154    1.33690670503315
H         5.38231777907207   -1.49745105085978   -3.38931966264709
H         6.10898465328298    0.14742399171640   -3.85138785206121
H         4.43939831232236    0.02099200509205   -4.11428556029430
H         6.66698695258706   -1.01253643724952   -1.14722197666419
H         1.70430849370211   -0.68205456426314    3.13794197425808
H         0.45697102434381    0.48754172994536    2.93266921219951
H         2.24070440466149    1.01591518127160    2.62914228153645
