30
 energy: -57.470245175837 gnorm: 0.131166108934 xtb: 6.4.1 (79825abcba525fcdf90b791dcacef51065a7a4e7)
C         0.54619778489078    1.46663808415234   -0.40679394990162
C         1.82625866149950    0.67997037652744   -0.15575685350729
N         3.07108358513683    1.33320368301081    0.27266227855296
C         4.02363240369877    1.90591179641396   -0.64683085768042
C         4.43021927931756    0.72845164669181    0.23014791324297
S         4.71608401816692   -0.68536088832339   -0.96709695544675
O         3.55494654007218   -1.54947873717424   -0.96010178160343
O         5.99955563262753   -1.27341290154334   -0.63935208635113
C         4.89490811379742    0.39767753804273   -2.40384173059586
C         4.77283495560577   -0.27589688135464   -3.75409226116522
O         6.17369010271331    0.99675586966423   -2.09560792476256
C         3.89504540424022    1.49814902781188   -2.06137850757347
O         3.02539832802982    1.92954035542103   -2.80137863358728
S         1.64559058883143   -0.59663544260052    1.18895308226918
C         0.82319280933779    0.17284783510331    2.56420159713122
O         0.72943416567645   -1.59025444988269    0.66235233825790
O         2.92736132293320   -1.00945087709334    1.74127267359700
H         0.62975868375187    2.25029841614890   -1.16190175628987
H         0.35659923647234    1.95198057887292    0.55346527620996
H        -0.22327474065781    0.70698927121752   -0.58538032797071
H         1.92750748979637   -0.05715478859474   -0.94475099514222
H         4.17300828254135    2.97284082338296   -0.50470924407759
H         5.00752261906304    0.74192529062397    1.14539417486374
H         4.22001717452347   -1.20089704296991   -3.56020097034580
H         5.69122752371097   -0.55173470132681   -4.28598370717395
H         4.04342704569507    0.32529126249720   -4.30499293222365
H         6.84159978435660    0.36127958720084   -1.75504868570981
H         1.59552063520076    0.62921873157917    3.18450229604380
H         0.46508576892758   -0.69243964868750    3.12289972757168
H         0.07424727270234    0.93063319074342    2.32028764037471
