30
 energy: -57.471146398338 gnorm: 0.130099900766 xtb: 6.4.1 (79825abcba525fcdf90b791dcacef51065a7a4e7)
C         0.69889862203923    1.74876307812328   -0.36371462197874
C         1.72812314238691    0.63521855766452   -0.21832850736782
N         3.03301438008627    1.06588587075541    0.30285287977868
C         4.11573852035092    1.66485172416731   -0.43860526439252
C         4.31229671338874    0.30917460939473    0.22796949411288
S         4.59568304952520   -0.93974224459927   -1.14092731682783
O         3.36190080202217   -1.51011302391051   -1.63836815565829
O         5.69271878220407   -1.82818902105265   -0.81275633244656
C         5.16112604676690    0.34605029081075   -2.27943406178654
C         5.10215412317612   -0.01750246606416   -3.74781158471516
O         6.47396661620737    0.53950523581464   -1.70653693111461
C         4.22270609338216    1.48835533201832   -1.90187451956522
O         3.66634272488894    2.29047093601942   -2.63471495305315
S         1.27684531442119   -0.42557696971183    1.24511584048001
C         1.31165708199137    0.65024277971632    2.65973632209726
O        -0.09943481483929   -0.84100041615184    1.05222718716973
O         2.28074965599791   -1.47888560105967    1.21154906809795
H         0.69200315681736    1.95645229480966   -1.43521421183310
H         1.04410270654310    2.56502982027498    0.27514801328941
H        -0.27684900795478    1.33859443960706   -0.07959207079775
H         1.72339305911814   -0.06571405995468   -1.04584752742743
H         4.52766810990325    2.57384433762052   -0.00861042844843
H         4.89348030991997    0.12959376780398    1.12301843198781
H         6.08827353455942    0.36165446611136   -4.03527490119324
H         4.20546754681903    0.50198016347804   -4.10632365499644
H         5.04717391145032   -1.08837998602180   -3.96495933828266
H         6.79757751750101   -0.33810942915785   -1.40490382880375
H         1.19043535337600    0.09039139170777    3.58785772512114
H         0.47083534492765    1.34365462510271    2.62360458876080
H         2.26440045392718    1.17593909944089    2.55689893999403
