30
 energy: -57.473270681318 gnorm: 0.130220662115 xtb: 6.4.1 (79825abcba525fcdf90b791dcacef51065a7a4e7)
C         0.48087843954046    1.34154718873708   -0.40396948167882
C         1.73493740598067    0.50430457796576   -0.18767688043536
N         2.93944137534255    1.25930560471538    0.18513597887605
C         3.89850930677310    1.94979290324866   -0.64204444731876
C         4.34173527701616    0.76122499455506    0.20156335736830
S         4.63952667409158   -0.67702292429663   -0.96322976322929
O         3.54776249032051   -1.57728490441064   -1.26747992857628
O         5.83739742545258   -1.36181340722224   -0.51973352657406
C         4.97327795587742    0.48483980998546   -2.30780066556657
C         4.81296324978412   -0.10753748206606   -3.69169704399636
O         6.29706367168556    0.92958388290818   -1.93499992746476
C         4.00563288013788    1.64305267464191   -2.08363562515189
O         3.39467028476268    2.22826624651973   -2.96354157545003
S         1.52882708598467   -0.65091186381859    1.25925148113708
C         1.23160161857240    0.22261305345277    2.77858105082227
O         0.36780661407654   -1.46279357490788    0.94810968338180
O         2.83812101144585   -1.28634157093628    1.27895509757813
H         0.42098703744813    1.72117011187590   -1.42553357253416
H         0.51320574614003    2.15955162595654    0.31951266285853
H        -0.35099731103882    0.64775779785294   -0.23757718518303
H         1.88262933858336   -0.23009634269190   -0.97187007859214
H         4.00860939151585    2.99061912073352   -0.34979798468807
H         4.99995778701974    0.70943523306633    1.05899986574162
H         5.66555240538839   -0.72256087162990   -3.99774376087497
H         4.75525827511819    0.65731028646311   -4.47535382458449
H         4.03788092963369   -0.87963714800561   -3.68368856463134
H         6.86060301801452    0.12557546032553   -1.97867950229257
H         1.54692155740753   -0.44357646189545    3.58251045602348
H         0.25869479116603    0.65616950399110    3.01222135557914
H         1.92139206697902    1.06098505577410    2.65219432911732
