30
 energy: -57.465736211807 gnorm: 0.151939304928 xtb: 6.4.1 (79825abcba525fcdf90b791dcacef51065a7a4e7)
C         0.78374724393263    2.12526230297490   -0.06432684470557
C         1.71784777256148    0.92286314959097   -0.11030614285187
N         3.04535901457906    1.39750563821279    0.30475281366821
C         4.15791572747258    1.74694628368581   -0.54431764136400
C         4.22506239148589    0.49031663093102    0.31428046789472
S         4.33088538629304   -0.83032532812228   -1.01187409924989
O         3.02983102715493   -1.18834310954993   -1.53539073599161
O         5.17887007516081   -1.92912764184880   -0.59464908842926
C         5.16202960550679    0.25080228297045   -2.19911805640882
C         5.31260354509308   -0.03509647700629   -3.67809413202785
O         6.46012262261373    0.44607806847051   -1.59413195293248
C         4.19979146785777    1.41516978641209   -1.98373443641074
O         3.42535986368351    1.73473181727216   -2.87149597808758
S         1.45474902300307   -0.50829009975608    1.05295978814251
C         1.45329120815335    0.25676285384774    2.65746686250002
O         0.21108607382208   -1.20659885696939    0.78914732825150
O         2.59681727579921   -1.38910727350522    0.85738131324506
H         1.12929219771522    2.82621557680856   -0.82626970524369
H         0.69585494440182    2.61731088793023    0.90714927719407
H        -0.18592923829189    1.79028150141062   -0.44976524178153
H         1.71693130942530    0.38583790356797   -1.05249491245352
H         4.62430638122527    2.70219738275566   -0.31887539791967
H         4.69852633225634    0.34757286058771    1.27687714872625
H         4.46296997757937   -0.47445067616631   -4.21093305702590
H         6.04629777695728   -0.79155137685147   -3.98125857914418
H         5.57315917916006    0.86108684034244   -4.24898891790638
H         6.87947908878255   -0.35767462315901   -1.21461145401825
H         1.14527491783360   -0.54736463486050    3.32682668335058
H         0.85083295008521    1.15778750755395    2.77707164436703
H         2.50112410772014    0.42435731790676    2.91940271492602
