30
 energy: -57.473537842964 gnorm: 0.143288591535 xtb: 6.4.1 (79825abcba525fcdf90b791dcacef51065a7a4e7)
C         0.43706405690690    1.44571531546721   -0.13589926457211
C         1.71318784800440    0.61989997443333   -0.23569242536738
N         2.82314699609485    1.48808950000046    0.18154059885325
C         3.83360199690758    2.00750826482487   -0.70727676999085
C         4.18969584278298    0.90792632507683    0.28516153896447
S         4.44671796773573   -0.55924043620603   -0.85296898978617
O         3.37158212692658   -1.43047673124099   -1.27725553547242
O         5.63396393465836   -1.23426028049239   -0.36787468832477
C         4.90901335965074    0.38353116574327   -2.32492364742463
C         4.83926228107210   -0.37447317606075   -3.63348967799392
O         6.21922074818761    0.81280343645111   -1.89102478871908
C         3.94622279432260    1.54695082873955   -2.10690299246732
O         3.44201962923607    2.05737777567630   -3.09443941978216
S         1.85000846834616   -0.67655259174102    1.09513402616151
C         1.22557461175963    0.02993751859379    2.60201994839553
O         0.91793044459296   -1.68649460130019    0.63126188673509
O         3.23678532981890   -1.03952932106968    1.34714108764629
H         0.25244543509458    1.90855123355220   -1.10697733075246
H         0.36140375735741    2.15679304219375    0.69008300715456
H        -0.43656836467160    0.79108141854338   -0.03962760481836
H         1.89169896484315    0.07697985018408   -1.15736922168611
H         3.96811644086917    3.08348083422703   -0.63629690503071
H         4.78078484747676    0.73752254735765    1.17550572792958
H         5.72262230388751   -1.00701728231715   -3.76909813693923
H         4.64602804704970    0.28889191840758   -4.48498671529316
H         3.96756441776516   -1.02652554536377   -3.52428722663780
H         6.53604720907035    0.09289658539356   -1.30172930840386
H         1.11613488195107   -0.82667165702298    3.26818906254057
H         0.21833502189466    0.43398392210340    2.49561696284933
H         1.87837972863257    0.86291947266343    2.87522065121121
