30
 energy: -57.478039981932 gnorm: 0.129692129558 xtb: 6.4.1 (79825abcba525fcdf90b791dcacef51065a7a4e7)
C         0.66438544502566    1.57990985746193   -0.40272440781284
C         1.80328619344349    0.57574416085217   -0.28034012245230
N         2.95416002363761    1.31371359172000    0.25885959022080
C         4.00947174877814    1.85257939407053   -0.56378994531081
C         4.28082782711845    0.64220753511526    0.32062109641647
S         4.64988654821043   -0.74767520433518   -0.88187690589684
O         3.49101222580264   -1.51538534444548   -1.28513894844206
O         5.89920565206002   -1.34830097204050   -0.45882641320986
C         5.00222590882213    0.33522961820234   -2.28628423906896
C         4.76429268180542   -0.20685926280773   -3.67959263097525
O         6.34673217084034    0.82854324991680   -2.09101295256373
C         4.08867690492009    1.52386200814590   -2.00233838043458
O         3.30817972139786    1.95467675400936   -2.83612941737571
S         1.53983183156829   -0.58667483711392    1.15143571831041
C         0.92055549129978    0.29663814392474    2.56423651516203
O         0.46228045832807   -1.46397246653484    0.73530884561779
O         2.85186574471805   -1.10275996394479    1.51286742814259
H         0.70929158490859    2.08106117557430   -1.37129269642773
H         0.89175452217655    2.36041466739247    0.32715110973319
H        -0.33195005206707    1.17527307358358   -0.19146146296637
H         2.00987615932582    0.03951670041878   -1.20006686968285
H         4.34925905261708    2.81693022419049   -0.19579362402663
H         4.79239822061599    0.69917725318973    1.27255942521894
H         4.22870675672222   -1.14856017692993   -3.52093029819128
H         5.66348550724306   -0.46736925359263   -4.25058013496567
H         4.24091696778901    0.57346819180497   -4.24005811445261
H         6.94859819241368    0.09464822919553   -1.83592584162289
H         0.79667478136567    1.37730390273240    2.48453262390516
H         1.60230353529192   -0.07492317723595    3.32991821934255
H        -0.07193329094538   -0.14396935099976    2.68866775323729
