30
 energy: -57.469364025208 gnorm: 0.135873783032 xtb: 6.4.1 (79825abcba525fcdf90b791dcacef51065a7a4e7)
C         0.76965594314279    1.60601467796813   -0.27647853465410
C         1.79307948246203    0.47914902981553   -0.21991282555721
N         3.00936154642676    1.18503590170600    0.20696794226175
C         3.93126854792051    1.79336942622289   -0.72084111667014
C         4.42131492555718    0.71577636531383    0.23804637465358
S         4.71238431296253   -0.69415250363866   -0.96251967744916
O         3.48561559750025   -1.41211304295455   -1.23557649668335
O         5.92129623974114   -1.45405551620530   -0.71432493378727
C         5.05861910255988    0.38054699796906   -2.37472656361401
C         5.07916839046085   -0.27686816321357   -3.73823816112325
O         6.28344137035873    1.04989002768163   -1.99925802806138
C         4.03878421091662    1.49576375551052   -2.16431649188264
O         3.25312955609630    1.95492218210772   -2.97789196925460
S         1.41317147903909   -0.60848569117370    1.24409838659667
C         0.97714574179617    0.29128954500293    2.71380488047676
O         0.21236939593994   -1.37386420018501    0.96805534534118
O         2.60228256295995   -1.34619069802642    1.64436814546058
H         0.84447411312036    2.09882047176316   -1.24747720699059
H         0.71697109662074    2.27754578113274    0.58368017592410
H        -0.26006571190751    1.23126958646572   -0.29341386647323
H         1.83752655439912   -0.12069286839737   -1.12231561335020
H         4.11511292109238    2.85525044256069   -0.58134536611315
H         4.92039723549081    0.80069420363087    1.19452013738263
H         4.67809480881568   -1.29493211828687   -3.77712770873139
H         6.12110970859143   -0.26110919511614   -4.07963216769859
H         4.46156849171867    0.27988092998958   -4.44926238408114
H         6.93316380750197    0.48720081986259   -1.52264953676408
H         1.29001155463032    1.33611045282615    2.71243482691779
H         1.40272115629027   -0.30232051218593    3.52350812843915
H        -0.11356533150016    0.27160857717039    2.64587775225634
