30
 energy: -57.472186097684 gnorm: 0.136772637704 xtb: 6.4.1 (79825abcba525fcdf90b791dcacef51065a7a4e7)
C         0.49436173364730    1.40217969620170   -0.21643611886964
C         1.71383624384701    0.49912982535160   -0.08300294054455
N         2.95209258603452    1.23639480579579    0.20510708424143
C         3.91669022822903    1.86706972458689   -0.66242503821399
C         4.31999492959512    0.65172335769303    0.16286012082372
S         4.73153388680868   -0.67345444906651   -1.09750462138926
O         3.56351482915211   -1.47844702153730   -1.38509333937318
O         5.99208130163486   -1.28870598431739   -0.73280335008159
C         5.05090521281176    0.49044649712476   -2.44380413511172
C         5.13265761984696   -0.01966488619287   -3.86678824310043
O         6.31446375300521    1.06480692838260   -2.04042315734219
C         3.96885771091341    1.50805134840114   -2.09495235536561
O         3.10438146558059    1.84328637310885   -2.88885600055137
S         1.50784562500652   -0.63338927130192    1.38177572187603
C         0.81684784491278    0.22137588408235    2.77879028817444
O         0.50972076498426   -1.59766758295320    0.96006045189827
O         2.81581452636114   -1.18559312982246    1.70224097894536
H         0.52166458241679    1.98073594543196   -1.14154203577436
H         0.31612532178411    2.01636254384986    0.66934824580555
H        -0.45113273352170    0.86769732994928   -0.36277885255321
H         1.88995913881587   -0.15635345086734   -0.92883921312375
H         4.27532668450212    2.83592614288913   -0.32545861807539
H         4.91349917096898    0.83227564177421    1.04959004971535
H         4.51144298517113    0.52232610008752   -4.58731914368324
H         4.71126312109959   -1.03196855157888   -3.87717515655817
H         6.16746215528894   -0.06528825944418   -4.21899942081462
H         6.98534311489201    0.40753774464401   -1.75088534379874
H         1.53572095684009    1.04159284147751    2.77699735379676
H         0.87252613375234   -0.30228610010649    3.73366448776017
H        -0.21445114395542    0.40209385033859    2.46507785210796
