30
 energy: -57.470837842216 gnorm: 0.134128109874 xtb: 6.4.1 (79825abcba525fcdf90b791dcacef51065a7a4e7)
C         0.49484543055950    1.51709251793366   -0.16225785557358
C         1.74976299471712    0.65372121423489   -0.14834828885853
N         2.91185538294141    1.44678484361209    0.27643062424582
C         3.86882121895048    1.88309643889489   -0.71081810032158
C         4.22032706277590    0.73918226357567    0.23190193596893
S         4.47236926605548   -0.60056445354650   -1.05477333492777
O         3.26175462428739   -1.21177308834620   -1.56056481926332
O         5.62346519622369   -1.45803428494251   -0.85416201767875
C         5.07433950198277    0.53862963793810   -2.32325845297302
C         5.26207379478879   -0.19837262756412   -3.63221389261667
O         6.25637799786533    1.01831559661516   -1.64364630134401
C         3.82031650019244    1.37833695577359   -2.09884379363167
O         2.96734707750080    1.45373670358933   -2.96875339929957
S         1.68048291610021   -0.65365503222155    1.17701045462961
C         1.30179300793105    0.22918948597784    2.67264764668393
O         0.66653134493130   -1.67609094556587    1.00249202552353
O         3.02176041383723   -1.16831958794217    1.41047308098983
H         0.27267672212830    2.00094926413654   -1.11505240296969
H         0.47445365084577    2.30564357892805    0.59363507857141
H        -0.32317848986997    0.81025895311510    0.01738221912030
H         1.83954226469774    0.24281446066417   -1.14795417022659
H         4.27213051680619    2.88101733093622   -0.56133651397824
H         4.76366173538961    0.80645948087480    1.16538873479023
H         5.66069007544515   -1.15881139036123   -3.28944709918588
H         5.97576159365406    0.31841003542695   -4.28492005001084
H         4.33091801919262   -0.18752156993008   -4.20648369771734
H         6.87791105570859    0.28538866651651   -1.43766373680440
H         0.98539624090909   -0.55626473800471    3.36002845139311
H         0.49598429954603    0.92524234949237    2.43751062367930
H         2.11880585301535    0.75580579072831    3.17246497218187
