30
 energy: -57.479478960101 gnorm: 0.121832022720 xtb: 6.4.1 (79825abcba525fcdf90b791dcacef51065a7a4e7)
C         0.50157386512452    1.33552590529787   -0.32508369618811
C         1.79959555847049    0.54209689120699   -0.24741962108991
N         2.90509760841891    1.41056421928209    0.18092047868210
C         3.95202261675650    1.97227009649977   -0.63715431633277
C         4.27231280107560    0.84304097623747    0.33396527576510
S         4.68004812286413   -0.63389917567738   -0.74602514553091
O         3.53884003080769   -1.45945676324576   -1.07932322250835
O         5.96741592813698   -1.17487817201451   -0.35802111662363
C         4.85824313441122    0.35982197291828   -2.24600869655623
C         4.58208730118475   -0.40406224888751   -3.52350613132824
O         6.16839362666528    0.96936198291410   -2.21205336383631
C         3.98376041547442    1.59714750370287   -2.06614895984331
O         3.43484699040320    2.14228415852711   -3.01034429619812
S         1.69067165548880   -0.73323974067735    1.10619046498184
C         0.97439758321357    0.22622598233802    2.42001240055505
O         0.75772117393289   -1.76338356772144    0.69105583615980
O         3.05968258615465   -1.09706378256932    1.44063158879993
H         0.22376475915132    1.76373958568339   -1.28983696586828
H         0.48689951231109    2.15462990772066    0.39772749485645
H        -0.34964078485972    0.68206980540165   -0.10265141588355
H         1.92234940472313   -0.03109731107964   -1.15983210183379
H         4.03813200367406    3.02927955816678   -0.40016213908178
H         4.68137240656706    1.05087551763966    1.31407308750582
H         3.52926136382876   -0.30299503630799   -3.80664849028878
H         4.99845198165654   -1.41674995417198   -3.46397473055537
H         5.11579349176923    0.08399315370404   -4.34442894097355
H         6.85201068941854    0.27285733328166   -2.09602307304859
H        -0.00180409939927    0.58558538149100    2.09224919318257
H         1.65529135833056    1.05301575599073    2.62472932778107
H         0.95876794828115   -0.29266612482012    3.38186414395411
