30
 energy: -57.476272744196 gnorm: 0.134515278838 xtb: 6.4.1 (79825abcba525fcdf90b791dcacef51065a7a4e7)
C         0.65326163511435    1.47219650763525   -0.47930899092395
C         1.86309350679993    0.57984411205095   -0.23347239997875
N         2.98021804432484    1.41351062946971    0.23222994077542
C         4.01400651087015    1.91345299401741   -0.64078238218080
C         4.31636762297847    0.76289114803438    0.31084899217073
S         4.67364811244049   -0.63718928191699   -0.88334748756567
O         3.46337901578010   -1.37945546319939   -1.16491180155062
O         5.84366313024573   -1.34866858287591   -0.40860195810368
C         4.92118837119152    0.41313395560422   -2.33411650928512
C         4.82548272211121   -0.39154922300464   -3.61282924474515
O         6.20624539073928    1.04619005452405   -2.14162044688358
C         3.86567730235654    1.47619031314967   -2.04454516113493
O         3.11144726720348    1.99727106824044   -2.85052071824576
S         1.61785854779099   -0.65333645126331    1.14120344719261
C         1.03554650957563    0.18789091287091    2.59481973529307
O         0.51851355707898   -1.53448005135431    0.79630314981036
O         2.92620209243518   -1.22201315166610    1.42974063480745
H         0.82053836278129    2.22326744588967   -1.25339211049181
H         0.36444234550012    1.95822903256165    0.45554850040560
H        -0.14469187674556    0.78613544232258   -0.78531190926538
H         1.99212085465263   -0.16602981479926   -1.01009368164734
H         4.33754385772893    2.93539510203564   -0.46243677768462
H         4.80314042669877    0.84166824782194    1.27416763021336
H         3.77838559128238   -0.71152521100914   -3.60738897420398
H         5.55067507527597   -1.21156520594766   -3.67693666423143
H         4.96656871474155    0.27757982204599   -4.46682906701171
H         6.71334382700280    0.46575650914173   -1.53181546245108
H        -0.04226219894210    0.03487978801071    2.66155507951183
H         1.36908574857959    1.22370325846697    2.52445608332884
H         1.68994753508130   -0.24314448634559    3.35680389709713
