30
 energy: -57.472122325203 gnorm: 0.125557424964 xtb: 6.4.1 (79825abcba525fcdf90b791dcacef51065a7a4e7)
C         0.38751653453434    1.17303841779076   -0.37125518378242
C         1.68523424255515    0.38246508260445   -0.26474637579402
N         2.77841466173582    1.29157717361058    0.10716430733688
C         3.73009805063822    1.98368597367804   -0.72715913590096
C         4.19508662302074    0.83931908505542    0.16448379677381
S         4.46552498659788   -0.68169144867875   -0.89729294262226
O         3.29525828587748   -1.42505681961364   -1.31307245724252
O         5.73019255791982   -1.27049828152624   -0.50429968123097
C         4.91430412739753    0.44811887612046   -2.23569189476064
C         4.94845353814471   -0.19293708757476   -3.60669952286317
O         6.16927652344195    1.05161082919562   -1.84835735059611
C         3.87416037195954    1.55992204752987   -2.13549869695764
O         3.32553056332933    2.14662159827237   -3.05461439839781
S         1.81080643917549   -0.72129700661117    1.23076325699271
C         1.44624528813775    0.40190735777455    2.55939346228530
O         0.78383098142573   -1.73490045909012    1.37861154738304
O         3.19981629068466   -1.15275841335546    1.17688919067807
H         0.25357423859785    1.67301708628663   -1.33217897242046
H         0.24826093734819    1.82588486956801    0.49361597261980
H        -0.46075146981371    0.48371352556126   -0.29175697020260
H         1.88970933299108   -0.15164421922162   -1.18617666941684
H         3.79889307448865    3.05014453588031   -0.53022608260889
H         4.87572185046010    0.85135004469769    1.00574913187016
H         5.95827710269507   -0.53199822229880   -3.85991987417564
H         4.76474784339235    0.60166603713425   -4.33970567212071
H         4.18640039349254   -0.96113946698014   -3.76823819284131
H         6.76663826352037    0.30275707725991   -1.62860509584433
H         1.48680365451788   -0.03348327240708    3.55855693287423
H         0.37756081601208    0.57485270616826    2.42858792531039
H         2.08496325953460    1.28813985947169    2.59521784565098
