30
 energy: -57.476378391038 gnorm: 0.139013881057 xtb: 6.4.1 (79825abcba525fcdf90b791dcacef51065a7a4e7)
C         0.90089924714826    2.14141317571080    0.29673461309695
C         1.87960553086379    1.08466618777226   -0.19908934584686
N         3.18799090345370    1.53887798994498    0.29250513927371
C         4.30535984131339    1.78623870156407   -0.58562399950330
C         4.32590344655821    0.58125166400431    0.34625649145929
S         4.13483380034219   -0.77662345261174   -0.93188564735608
O         2.85832939195598   -0.78912449429773   -1.61406528174742
O         4.71831704529551   -2.06025571586421   -0.59668903267510
C         5.15996888590807    0.12213917621633   -2.11953443040161
C         5.32155797139208   -0.57121438054737   -3.45554740194569
O         6.45604360040216    0.24822567137829   -1.49225551981338
C         4.33380532948217    1.40037888791230   -2.01182638158978
O         3.65536466022272    1.89897468516888   -2.89562792881741
S         1.54344342087095   -0.44127115566121    0.81536539978030
C         1.14165363645445    0.15772851167994    2.44002396953484
O         0.37462404668787   -1.16253887015207    0.34892802726012
O         2.80665093679022   -1.15358483707515    0.93916249221077
H         1.02672044741018    3.01254828630856   -0.34870041686117
H         1.09883949933008    2.48213530268389    1.31571980230858
H        -0.05574115634740    1.60977400635842    0.23975821418449
H         1.74228246760288    0.89180412775633   -1.25741972453050
H         4.79110806108523    2.72188004122034   -0.32204632298078
H         4.77019576555895    0.36305931723551    1.30861445957682
H         5.78041818733251   -1.52305860096477   -3.16872600591469
H         6.04353748048213   -0.01809154840594   -4.06811629106095
H         4.41277681441388   -0.66121455870989   -4.05801848798583
H         6.58724100618228   -0.68015376223935   -1.19761521075496
H         0.05423549893664    0.21533480866936    2.50118712429787
H         1.73347473656774    1.04197823686733    2.67868039989936
H         1.57484946566297   -0.62079117432220    3.07319105054142
