30
 energy: -57.473073240550 gnorm: 0.140022754042 xtb: 6.4.1 (79825abcba525fcdf90b791dcacef51065a7a4e7)
C         0.23415371011492    0.77858422352817    0.28756805111297
C         1.64151844151976    0.34617053895954   -0.10328293569573
N         2.57289061581417    1.47945436076152   -0.01350862421594
C         3.32048992588614    2.03694533883212   -1.11401330480452
C         4.05065454480051    1.30431406951725    0.00443567546040
S         4.81238812013074   -0.18906851923659   -0.83434332707261
O         3.91881931344166   -1.32160106715277   -0.95221463872817
O         6.18515401038204   -0.42021581977063   -0.43109899817165
C         4.65754651404381    0.47070915159382   -2.51061995686184
C         4.76415351037203   -0.41150836546450   -3.73622513408975
O         5.70076296051176    1.47108470522770   -2.49902255827482
C         3.35089478942660    1.24417017999781   -2.36074231930309
O         2.50275446127258    1.20459218200674   -3.23771225202077
S         2.09414018594162   -0.77462864497106    1.31430336326670
C         1.19510536409004   -0.33540346963462    2.78351020225353
O         1.84759663121635   -2.16018109855443    0.96303374893929
O         3.49932655782116   -0.54090691052329    1.61302587721443
H        -0.22701354469150    1.43204902102608   -0.45513125315082
H         0.30703058969467    1.29435589156855    1.24791760918142
H        -0.42676731965995   -0.09258703288365    0.36031016332782
H         1.75779943517485   -0.17233113735428   -1.04866716561009
H         3.29354301754034    3.10150127584130   -1.33044755055899
H         4.62735302341370    1.79337829538443    0.77862650411584
H         5.75615177155417   -0.87321927830859   -3.77608881937464
H         4.61994586550516    0.20482860986302   -4.63164280794501
H         3.87774084913623   -1.05257064690159   -3.71990404212665
H         6.55849881425220    0.99937779747164   -2.41129660965540
H         0.15361879006184   -0.61185869075836    2.61494018862125
H         1.27984120684881    0.71086581591062    3.07888640597091
H         1.62411354711393   -0.92305027481028    3.59915429837120
