30
 energy: -57.471880472426 gnorm: 0.139954372490 xtb: 6.4.1 (79825abcba525fcdf90b791dcacef51065a7a4e7)
C         0.59734504676976    1.49582798785306   -0.41994993123995
C         1.76255009485716    0.53468938288319   -0.22263951737558
N         2.91654287618505    1.29252893528327    0.28117137730554
C         3.88520414430149    1.82355503925712   -0.64646996279181
C         4.29360592110028    0.73057643547939    0.33303155620641
S         4.72494074579077   -0.63768252212579   -0.87353271147729
O         3.56441088222070   -1.46451395775461   -1.12751904481543
O         6.00283706376058   -1.24988985593362   -0.56905866165500
C         4.94154755893893    0.38856159234045   -2.34631590858435
C         5.00506126269754   -0.24521216283076   -3.71966134206583
O         6.15810877076837    1.10081890911626   -2.02716918306534
C         3.83299615741118    1.39723689635304   -2.06042791958285
O         2.88041166833208    1.68941044002741   -2.76555355316741
S         1.57443286514254   -0.65422793292770    1.19922394912808
C         1.09389937735414    0.31990567831056    2.60631398662075
O         0.46775548982193   -1.47903413904490    0.75325357372979
O         2.89193872377199   -1.21580943517999    1.45848107367544
H         0.85931964190468    2.13159257302951   -1.26757392405471
H         0.41301008933444    2.15232236294238    0.43365330234276
H        -0.28885453248250    0.92531475167669   -0.72030360237333
H         2.01276451793532    0.00667684855034   -1.13626533373085
H         4.44033724728158    2.75751500799366   -0.62659246996043
H         4.92426474589561    0.88510101576502    1.19878432293280
H         4.01325870245775   -0.60926733157357   -4.00709506844330
H         5.60200990898860   -1.16304989382990   -3.78020997369878
H         5.31610546604256    0.54371014505290   -4.41089771916936
H         6.79756659803408    0.37263778898681   -1.86358438145133
H         0.50115304097286    1.19483146299629    2.33669522807040
H         1.91363580448664    0.64576656522158    3.24737057966765
H         0.51757480325697   -0.37599513617420    3.22131327297973
