30
 energy: -57.470073179052 gnorm: 0.129280151154 xtb: 6.4.1 (79825abcba525fcdf90b791dcacef51065a7a4e7)
C         0.22071193359318    0.26510494346410   -0.24403582987738
C         1.65238315332980   -0.15193863926887    0.06711334464392
N         2.64453419715178    0.93219840099565    0.07845673158078
C         3.24752953300066    1.76829220869765   -0.93058024680577
C         4.12955234025387    0.92483309486720   -0.01875243204493
S         4.87122708950529   -0.29418965973856   -1.23443401603309
O         4.05423000223189   -1.42757032903929   -1.61252509690787
O         6.24428493041544   -0.58609143433840   -0.87384174539464
C         4.84570353426557    0.86785645130305   -2.61941893389481
C         5.03970508321884    0.28844413086533   -4.00449135270890
O         5.75889036024309    1.92572678531848   -2.25038441425422
C         3.41784763677143    1.32016699822474   -2.32840909157308
O         2.52037573295507    1.25673197975194   -3.15333631772855
S         1.82980186960917   -0.84328520090650    1.78791860186619
C         1.65917387134905    0.57825890409339    2.84141257069861
O         0.77234807676536   -1.82553763662255    1.93249140180827
O         3.20938947814446   -1.23145944116192    2.04182511354612
H         0.14713419357863    0.42398230936900   -1.32136494684129
H        -0.24147367621883    1.08492042055527    0.31084232143306
H        -0.31789860498472   -0.67713701393996   -0.09196296419304
H         1.83741295322106   -1.02422473526964   -0.55013667130926
H         3.11900683238560    2.82325189715842   -0.70388419861384
H         4.85541423255028    1.19589891601028    0.73675009174455
H         6.06958840156966    0.36846448706753   -4.36748408627412
H         4.44189195328397    0.91144792244436   -4.68045411843030
H         4.77689970975966   -0.77328702404889   -3.97969369798854
H         6.56907455663671    1.47671512597077   -1.92189675599487
H         0.73448234489443    0.98189893652030    2.42721705156725
H         2.44668953809479    1.29867830422699    2.61798104729222
H         1.54255305629316    0.23109411773288    3.87123210693484
