30
 energy: -57.464851545966 gnorm: 0.141735809198 xtb: 6.4.1 (79825abcba525fcdf90b791dcacef51065a7a4e7)
C         0.50697109741121    1.41220134445757   -0.42878315009816
C         1.74444760720336    0.56843300706513   -0.15106296461007
N         2.86524266982180    1.42764983693902    0.25564382013198
C         3.85482564481413    1.93940876523246   -0.66067499491196
C         4.18157857050704    0.73468930362554    0.21265256869651
S         4.61896846012849   -0.65224359140135   -0.97017743082110
O         3.53284797654384   -1.57324097476079   -1.22920439137228
O         5.86603811701404   -1.25259837812346   -0.54016269815521
C         4.89662181303445    0.51891876941481   -2.31942654615788
C         4.90717945415928   -0.09767465015035   -3.70199008438147
O         6.14615379972669    1.11779538016150   -1.90808372120908
C         3.75458909853889    1.49893564427967   -2.06768815035690
O         2.75999651879332    1.63300317233797   -2.76252355890211
S         1.70941288628651   -0.66297368894533    1.24644135169963
C         1.36976165387967    0.17624553861741    2.77617963880313
O         0.63033499381073   -1.52586280798575    0.80491792468377
O         3.05232941443283   -1.22417745709751    1.25237909151909
H         0.67656271536772    2.07955619670832   -1.27564200089204
H         0.31992104905723    2.03401058281295    0.44983410031058
H        -0.29629796513948    0.69512272308760   -0.63275481340758
H         1.94902945827193   -0.09096464797166   -0.98739880020905
H         4.53750756556007    2.76049895064737   -0.45916714636730
H         4.74607884183102    0.55936484491626    1.11914967684843
H         3.90233890613229   -0.50849144607690   -3.84464934368083
H         5.71153904244861   -0.81705969853452   -3.89674821119808
H         5.04696585288877    0.71624429770843   -4.41959048996333
H         6.94764147851715    0.55169020812896   -1.96336915196839
H         0.49372179913929    0.76083429058521    2.49272278684074
H         2.19543220393698    0.86994485373086    2.93790807192273
H         1.23909104178196   -0.52456299681587    3.60469920310840
