30
 energy: -57.473782148270 gnorm: 0.133000027744 xtb: 6.4.1 (79825abcba525fcdf90b791dcacef51065a7a4e7)
C         0.63066378366503    1.21637686446566   -0.53150648147637
C         1.75626179097150    0.25026540022701   -0.18498180603013
N         2.87784082030527    1.11419322858274    0.20939742578133
C         3.82234922362037    1.78638580530174   -0.64901533010384
C         4.27024446276638    0.58963986076797    0.18044597132291
S         4.80109401506112   -0.71045887681067   -1.06129549470765
O         3.70590506535179   -1.56987781007065   -1.45746350328297
O         6.07173792926146   -1.35176715927670   -0.78796606437475
C         5.04015099022794    0.54263728385079   -2.34261809881966
C         5.19739496563618    0.05646801363563   -3.76764252675991
O         6.22684644302285    1.22364459245991   -1.87660388268643
C         3.87116736879683    1.49176155111002   -2.09627601950831
O         2.96714159321653    1.81344071856514   -2.85075902454235
S         1.36017377147875   -0.63489176911409    1.40568448093973
C         1.20783785450438    0.64597703908127    2.62876255092028
O         0.13032686592291   -1.39763591198262    1.30756399619958
O         2.60383651196968   -1.33286412089963    1.69645468704772
H         0.89513694708877    1.79987640611202   -1.41517834592716
H         0.36388790028065    1.79730510139927    0.35447079692318
H        -0.23200838686636    0.60064151382886   -0.81027893849279
H         2.02297603934149   -0.56622125280468   -0.84704648984630
H         4.05447748015417    2.81740656783836   -0.39610840432676
H         4.68471412117802    0.85103404366753    1.14534199190770
H         4.52993044481635   -0.80867859065871   -3.83720614839979
H         6.20463299873114   -0.37090283939520   -3.84020712958237
H         5.03064979672774    0.84863140704244   -4.50359622073416
H         6.96158567950299    0.60349724222621   -2.08029375016059
H         0.18782722903754    0.90773532176261    2.91266138502409
H         1.78376687408439    1.44943894037692    2.16847848593007
H         1.66319566304220    0.17094686189724    3.50148683577227
