30
 energy: -57.475188730239 gnorm: 0.135797016430 xtb: 6.4.1 (79825abcba525fcdf90b791dcacef51065a7a4e7)
C         0.34559885947045    1.42405588090531    0.08426030854955
C         1.65060967517876    0.71201114051692   -0.24794539320690
N         2.85191044347145    1.46426542303457    0.14043037317615
C         3.85671311390044    1.95807127877772   -0.76915130697726
C         4.19141231653644    0.81721368388358    0.18333883254286
S         4.40182715486237   -0.66408296728801   -0.94602630680291
O         3.17809001552550   -1.25619908999701   -1.44287109406024
O         5.53652210698018   -1.37088504216061   -0.38618753568274
C         5.00230769260145    0.44013801661293   -2.24575896500152
C         5.14173926748438   -0.45737762166971   -3.45687636765033
O         6.28146900934926    0.95168055255003   -1.80842972863485
C         4.00787825104780    1.59619425552974   -2.19391244338695
O         3.32324419389404    2.03142420235262   -3.10596276583050
S         1.71162644416425   -0.67153240728684    0.99812538476986
C         1.48190576453455    0.17651365887335    2.54337532536487
O         0.73984050646209   -1.73729106098446    0.84411158363054
O         3.10231246136384   -1.06824279779153    1.16251211277562
H         0.23363754166885    2.31853623651693   -0.53109592320354
H         0.41576645408617    1.83227014215024    1.09522042346581
H        -0.50412405701604    0.73409021214723    0.13871875446026
H         1.62370175227212    0.29973393406864   -1.25065176174147
H         4.13014730632301    2.98083914262335   -0.52414341408727
H         4.70793539107884    0.90851759384323    1.12991365770900
H         5.48196338260886   -1.45456528540931   -3.15906611669619
H         5.80261473074391   -0.04791668571035   -4.23019731445792
H         4.12294917754842   -0.68392600649651   -3.78504890585454
H         6.74165612583371    0.19380841134763   -1.38443482397182
H         2.00949316187236   -0.46565435801757    3.24963972281740
H         0.42305709111707    0.10277980843073    2.79339430272830
H         1.96742764802684    1.15399744272407    2.48467240051347
