30
 energy: -57.470286321189 gnorm: 0.138347594713 xtb: 6.4.1 (79825abcba525fcdf90b791dcacef51065a7a4e7)
C         0.72735077741739    1.91010826441991   -0.07178243641638
C         1.86321438799105    0.91712754467891   -0.28207928688181
N         3.09646280148466    1.51229451922736    0.25151248267212
C         4.24216001412519    1.86346629312431   -0.55152431887423
C         4.27202260829965    0.60101477957539    0.30061525684391
S         4.22001629567654   -0.87077620315621   -0.85917190683454
O         2.95109634909129   -1.18275989308965   -1.48166463364666
O         5.14364797428622   -1.93435076188675   -0.51823943688495
C         4.97076442356128    0.14833025281891   -2.15028968360807
C         4.76967711146366   -0.36919701645398   -3.55866117719100
O         6.32200765891704    0.27585411096293   -1.65323265971723
C         4.47016019622842    1.58001510002220   -1.98380266619247
O         4.03093539676323    2.33286227217679   -2.83837124845811
S         1.67493711922404   -0.49163137403890    0.92231191811129
C         1.20996079660885    0.26436873949084    2.46244566121280
O         0.53259108382249   -1.24032902704119    0.43402201844918
O         2.89427812852466   -1.25377854671611    1.14758712236635
H         0.49055193148004    2.48750795555338   -0.96723183879759
H         1.07396908711831    2.66577670353638    0.63703607358885
H        -0.13672437207841    1.33587158233446    0.28130925799852
H         2.00635883094833    0.41072629287891   -1.23033245338054
H         4.67096761196373    2.72800505606388   -0.05197859825916
H         4.77312800405125    0.54168105034317    1.25796010831405
H         3.90200203483852    0.12555973772081   -4.00719472860048
H         4.53411739753803   -1.43689406491334   -3.47514736403111
H         5.62939395867029   -0.07098197692219   -4.16604027292839
H         6.59592353676100   -0.58095212489921   -1.25729426815334
H         0.87811014761635   -0.56061555467728    3.09396263176475
H         0.28579615279748    0.83643235146484    2.37430022415588
H         1.95176307972470    0.90294726742656    2.94886000828087
