30
 energy: -57.470679120257 gnorm: 0.133034166654 xtb: 6.4.1 (79825abcba525fcdf90b791dcacef51065a7a4e7)
C         1.00728799891108    1.80801542338316   -0.53511517394753
C         1.90749622737188    0.62306832654315   -0.20961994341728
N         3.15387712384686    1.10434574822930    0.40255015071324
C         4.30385346615912    1.67121555088547   -0.25852842388188
C         4.42606958012974    0.33440932773335    0.46177000297607
S         4.63991974108138   -0.80766709966914   -1.00925317453285
O         3.45621964798044   -1.56087729314141   -1.36494593452999
O         5.84504637082777   -1.59290429138134   -0.83150722203602
C         4.98806842846058    0.45639371562423   -2.25429477406623
C         4.52177705881525   -0.15288052065477   -3.55933810956217
O         6.42784511037799    0.50283687911209   -2.13566746555182
C         4.33204825150688    1.73222895073642   -1.73475074328293
O         3.75981927917793    2.56707250829297   -2.41708130409945
S         1.22935844858479   -0.55878069697664    1.06080134310151
C         1.11344443133504    0.40978196116787    2.54680316553707
O        -0.07509609905544   -1.08775486373335    0.71078087358543
O         2.30025462376626   -1.49743904301368    1.36165283231170
H         1.53643176724982    2.25621002845810   -1.37798064280500
H         0.77033434545043    2.47979794025883    0.29323495567752
H         0.07484128270866    1.43093794699803   -0.97031980725369
H         2.03600622625558   -0.04801179338913   -1.05179171118155
H         4.59351761553037    2.59684687804102    0.23152305609124
H         4.89993694633590    0.11469689902516    1.40956344664992
H         4.26532990938946   -1.20312912167618   -3.38601942362125
H         5.33585290967771   -0.05180336149719   -4.28700825475743
H         3.70767489138510    0.45629078696504   -3.96319775381738
H         6.66027676707348   -0.44983393677803   -2.07003298203896
H         0.60255784062025    0.03011566362500    3.43245886448788
H         0.46053515377789    1.22730055902697    2.23942798676321
H         2.13427385470135    0.77193620090725    2.69310311632975
