30
 energy: -57.474561046261 gnorm: 0.126239015354 xtb: 6.4.1 (79825abcba525fcdf90b791dcacef51065a7a4e7)
C         0.77711702768288    1.57915028609877   -0.60931170549255
C         1.83465484069273    0.55509088163732   -0.21772814664382
N         3.03558210123522    1.15659757885994    0.37876927320718
C         4.11998041672753    1.70431551433994   -0.39898186280598
C         4.28575632339478    0.35441531626337    0.28738893121669
S         4.62019169492138   -0.87219101439897   -1.09013410774578
O         3.41354117673151   -1.50601965763113   -1.57721172726017
O         5.74767618965823   -1.68684417104013   -0.68314491706175
C         5.06135268292801    0.41795288404061   -2.27760686274314
C         4.88971884232023   -0.01660608899504   -3.71756560257500
O         6.38829660119935    0.90711167468545   -1.97906069053360
C         4.13863600675260    1.56265339180668   -1.86980950973847
O         3.44301512361724    2.14975714994273   -2.68307789010865
S         1.36571794587855   -0.50853828465282    1.23808755980667
C         1.14609246943568    0.53314844091098    2.66160591779642
O         0.04639769357115   -1.06143452812893    0.99802614562554
O         2.51324847370393   -1.37444773250061    1.46564907689773
H         1.12205547351932    2.18888268844536   -1.44629294849333
H         0.56392278312312    2.17256397645138    0.28288285488257
H        -0.08228542416486    0.97038704765983   -0.91243234885928
H         2.17236092396575   -0.16987092954399   -0.95019082612780
H         4.50154869217870    2.59455769035012    0.09368815344806
H         4.95344314239231    0.14120947157945    1.11193364939753
H         4.39399658540314    0.65956305132619   -4.42175404912747
H         4.28342723553430   -0.91822983116389   -3.56949454524647
H         5.88528337074816   -0.24082241031191   -4.11194225470322
H         7.04070269475051    0.27109676007957   -1.61059717647583
H         0.09664944184441    0.64372091684335    2.93725185421114
H         1.70251230119239    1.46604126763046    2.56561306575086
H         1.61201417815936   -0.04811959163829    3.46141621790053
