30
 energy: -57.473224228977 gnorm: 0.130208284091 xtb: 6.4.1 (79825abcba525fcdf90b791dcacef51065a7a4e7)
C         0.76678931298386    1.66429895548290   -0.46286542982312
C         1.79364283653872    0.56631911309522   -0.21703281043254
N         3.03983693355824    1.11923734328011    0.33171803248799
C         4.16054615937519    1.62359694512565   -0.42355918587201
C         4.26774750254749    0.27965065274024    0.28575970969139
S         4.47459895393037   -0.90963447797138   -1.14839270535905
O         3.24757294353250   -1.58570584544100   -1.51215568791350
O         5.59268597730452   -1.76885761031805   -0.81352217378450
C         5.07670396744856    0.33470638440889   -2.31384163567590
C         5.15423207313034    0.05527250421962   -3.79967034357801
O         6.34874951154959    0.69683275308468   -1.73078852617399
C         4.20822124820758    1.51784503757032   -1.89675088974925
O         3.91370059783844    2.30801676113317   -2.77928752794581
S         1.26574671852209   -0.47319844293347    1.23601127730204
C         1.40610387885565    0.65614467840534    2.60152769300203
O        -0.10503401569944   -0.93885485725281    1.14626747701689
O         2.27357786617524   -1.49674844503738    1.47059921299850
H         0.92054828882291    1.90577210849577   -1.51611878361408
H         0.97430879867791    2.52971308469277    0.17085120750213
H        -0.26367090948292    1.33093070585894   -0.29534014299625
H         1.82361987693268   -0.03095429550024   -1.12173300463498
H         4.68810040974468    2.46334831153597    0.02068555570931
H         4.72472433082921    0.06174029829654    1.24222385368316
H         6.17935144459648    0.35226658284019   -4.04411138410568
H         4.41756119047329    0.70142725931867   -4.29184913803960
H         4.96021804748712   -0.99331391459536   -4.04416924477715
H         6.85844335319079   -0.09087770067695   -1.43814800856487
H         0.89556747759136    0.10922309932914    3.39510629162977
H         0.91801834757138    1.62817992201444    2.52389598389421
H         2.48248489359148    0.74177765098271    2.77100626271578
