30
 energy: -57.474050062831 gnorm: 0.132580887632 xtb: 6.4.1 (79825abcba525fcdf90b791dcacef51065a7a4e7)
C         0.27818634462626    1.26570890786260   -0.18630723431474
C         1.59322087569455    0.50010686877276   -0.11588469047782
N         2.78580853048964    1.32980868603359    0.10586991005087
C         3.75360688213217    1.90462714516057   -0.79621762601116
C         4.16476592645278    0.77084783428514    0.13454022163892
S         4.49479278708858   -0.68750708156141   -0.99606264366264
O         3.34611484343592   -1.43634757308196   -1.45949089934613
O         5.68040406543665   -1.42420977035714   -0.60604173230930
C         4.99213568330472    0.45512609875038   -2.30611046454064
C         5.08871711507918    0.00627556411615   -3.74867279286754
O         6.24149919672344    1.03124652949588   -1.86298253596064
C         3.94211571866782    1.55883653273047   -2.22052208859544
O         3.44456194785232    2.11588165869692   -3.18598867337700
S         1.74667697536066   -0.69055498727840    1.30867972149541
C         1.30121540047821    0.24442658230049    2.75336811312336
O         0.74630506195148   -1.73582984695714    1.20579061219892
O         3.14491662061461   -1.08224411340297    1.40825507353225
H         0.41308147927568    1.93804519210968   -1.03546031391550
H         0.22081604321788    1.95422212532253    0.66001476020671
H        -0.62981152088427    0.65280309141459   -0.21686387277042
H         1.71152765293886   -0.04503711968832   -1.04590520879748
H         4.10341343148208    2.85174788829389   -0.39441316451010
H         4.82749062594492    0.80274847158814    0.98947563994070
H         4.09199523810293   -0.39318742635815   -3.96268552659444
H         5.75384812257093   -0.86442089613855   -3.79258566081774
H         5.35564700325228    0.74745616218147   -4.50785286956155
H         6.75525559331274    0.28740804230619   -1.47740152788545
H         0.22742364326566    0.07201134079064    2.83572022036528
H         1.67130898536591    1.26888767009036    2.70221245763690
H         1.78438343022549   -0.37865243327617    3.51031809555044
