30
 energy: -57.474727674670 gnorm: 0.135117806806 xtb: 6.4.1 (79825abcba525fcdf90b791dcacef51065a7a4e7)
C         0.29254000247450    1.11003194194789    0.03903473059595
C         1.62268046827143    0.41108237948687   -0.21120009925574
N         2.67751425781435    1.39797252243974    0.05939009131551
C         3.59498481099465    2.00111180869707   -0.87617531792556
C         4.10572970297860    0.98749575382820    0.13996425467023
S         4.58809330486565   -0.49824778337105   -0.89631327572389
O         3.47039376213563   -1.39239800679925   -1.11132945256877
O         5.85610027494797   -1.10120925379281   -0.53698465546261
C         4.87273964598431    0.50045435268497   -2.37643365594347
C         5.02574554774217   -0.28211661200166   -3.66327192172847
O         6.16847597308728    1.05391113939618   -2.05403754099694
C         3.79931038567237    1.58031152587171   -2.27793424727039
O         3.11705553245073    1.86499524665731   -3.24925718672307
S         1.85909060215199   -0.75263751416799    1.22423518610183
C         1.34954149330114    0.20293358127680    2.63384317629307
O         0.88890570974642   -1.82550847707008    1.11644447520657
O         3.27568032253817   -1.04859238235919    1.37945763085552
H        -0.11096237550616    1.51859510970307   -0.88916551605219
H         0.36995023018606    1.84975261936822    0.83929949810407
H        -0.34857802428262    0.29535372503895    0.39444217934419
H         1.65337333451868    0.07493445344981   -1.24182085725084
H         3.85013275992207    3.04192333863667   -0.69600871603927
H         4.63030299728897    1.08629393959329    1.08134516602039
H         4.63646486047915   -1.29974634958613   -3.55502731382672
H         6.05622227603239   -0.14870890667391   -4.01364318194269
H         4.48159679712345    0.16124074938455   -4.50249240575597
H         6.64243077863044    0.35560141127696   -1.55040631687694
H         1.60971120490199   -0.55540636164669    3.37328206831625
H         0.27969385662893    0.38097102803527    2.52054981840742
H         1.92827905428939    1.12874728307300    2.68467530850743
