30
 energy: -57.478716112554 gnorm: 0.124440795472 xtb: 6.4.1 (79825abcba525fcdf90b791dcacef51065a7a4e7)
C         0.82457451429837    2.00955029315218   -0.07100823859738
C         1.91141678580881    0.94411445452571   -0.13458437239668
N         3.19775410902889    1.48995714455440    0.32064945087328
C         4.27471864930124    1.87027852656673   -0.56043764723924
C         4.39302694984971    0.60432362800462    0.27871573000695
S         4.38223329522753   -0.79998082621756   -0.96297356863964
O         3.05484637719152   -1.19706381617640   -1.38173113452333
O         5.36905602930923   -1.80375026072846   -0.61779380930733
C         5.05517449912191    0.27564013213053   -2.25114107685489
C         4.97898545091612   -0.41073383783851   -3.59831101822008
O         6.31040733022115    0.61115226735207   -1.61788879832164
C         4.14565750287124    1.46964936103828   -1.97697908746646
O         3.30199576184238    1.83602695715238   -2.77946710206996
S         1.57107329009892   -0.51913984891377    0.96707860590893
C         0.95399321853550    0.10624507589527    2.51234783234939
O         0.49003564874472   -1.32660591668067    0.43483257685587
O         2.84496909947470   -1.16052442984720    1.25729406965575
H         1.07624929082315    2.81625368802128   -0.76179270164513
H         0.62025511826306    2.45163013789716    0.90695992266339
H        -0.10737299972350    1.58466120610550   -0.46086779655457
H         2.04492218015320    0.56392039977263   -1.14143361099422
H         4.85364259250899    2.73597293459506   -0.25016438205645
H         5.03443510508285    0.54618545705336    1.14840069151660
H         5.87629633207268   -0.90157689186966   -3.98912159824112
H         4.67736580733799    0.38379007728602   -4.29127368800916
H         4.12753520418146   -1.09711455308195   -3.62778344280225
H         6.87976610073927   -0.15581424440329   -1.38657298819189
H        -0.09469604166122   -0.09335471919876    2.73583917418480
H         1.31051219064101    1.12326482760505    2.67869605112944
H         1.51015260029438   -0.54986152480306    3.18678311539779
