30
 energy: -57.470550149738 gnorm: 0.131487193311 xtb: 6.4.1 (79825abcba525fcdf90b791dcacef51065a7a4e7)
C         1.01606145922275    2.03230697247834   -0.02412651845842
C         1.97303706847721    0.84850366187871   -0.08095070213045
N         3.26300632489183    1.29872589414988    0.46045953370482
C         4.29134764983480    1.77819784986181   -0.43028858666996
C         4.49121757855710    0.46954563403514    0.32356712214851
S         4.51520651829633   -0.86485559634960   -0.99278302591486
O         3.20287606216217   -1.37354680910564   -1.33043795800964
O         5.53127821274664   -1.88785682737758   -0.84585432806437
C         5.08452163228953    0.28322709393483   -2.26831126075771
C         4.75950174085072   -0.18310146416974   -3.67140804808675
O         6.41599002976836    0.67302605628628   -1.86280543176997
C         4.19961043480115    1.46086903788167   -1.87064856482530
O         3.57946773911119    2.05355081746146   -2.73905862795084
S         1.38168540557998   -0.54059155117642    1.01052804855255
C         0.70795311176960    0.13691881013856    2.50946620888229
O         0.32656288097330   -1.26604977116133    0.32909096613989
O         2.57692646479327   -1.16049486459284    1.56327430305345
H         1.39890062130586    2.73348451273259   -0.76781863625174
H         0.97212185213743    2.45826397442249    0.98097679473588
H         0.06022787176554    1.73081977274266   -0.46744920092361
H         1.94474052423589    0.40103599749532   -1.06841643977043
H         4.72066687939888    2.73876404597360   -0.15854084188761
H         5.16021954511325    0.30745951096294    1.15861255260108
H         3.67910020518504   -0.26650341622945   -3.82826233348116
H         5.21285949763165   -1.16437541713998   -3.85582089023079
H         5.02930569407073    0.58775780749949   -4.39937538446438
H         7.03555881403393   -0.07187217076281   -2.02765444330050
H         0.79279969303673   -0.39003789731325    3.46059990524859
H        -0.30612263131249    0.49068781574355    2.32077450101480
H         1.32822727310531    1.02446315677664    2.65838591152826
