30
 energy: -57.472447991660 gnorm: 0.129316644073 xtb: 6.4.1 (79825abcba525fcdf90b791dcacef51065a7a4e7)
C         0.66966113736552    1.85711648826321   -0.02764252030955
C         1.80160911510163    0.84444496241346   -0.14431209229601
N         3.12202604297329    1.28429692383931    0.32778420472451
C         4.24170793898049    1.69019644215692   -0.48607688412867
C         4.29602559033078    0.37125110690495    0.27435080202599
S         4.30850092762386   -0.84892181180865   -1.14867486394134
O         3.02959786785991   -0.90544822523373   -1.82410108024892
O         4.96985115627923   -2.08449277526512   -0.77921372099971
C         5.19130501007432    0.31500752875371   -2.21409087609209
C         5.40662489688959   -0.11597297732453   -3.64924731211978
O         6.40961399671410    0.61243550083760   -1.49544902138051
C         4.21964623754802    1.46038086904801   -1.94568231870614
O         3.59343549336830    2.04456495059551   -2.81549483754699
S         1.44982573990460   -0.52023105728907    1.07409507153822
C         1.29448527338198    0.30483538134544    2.64090259321401
O         0.15775550268527   -1.13582738867718    0.83845694932756
O         2.71441702866340   -1.23615540794830    1.15577079808832
H         0.89009594809011    2.54734812802875   -0.84390381864148
H         0.61936038944161    2.41760139229832    0.90880247325576
H        -0.23335458725270    1.23662339486113   -0.05210262996118
H         1.75095089506934    0.39673770163499   -1.13077475672117
H         4.89028479592364    2.49043860217012   -0.13994156341339
H         4.90129436419103    0.06711654597048    1.11832243530608
H         4.47804930476295   -0.59800482075492   -3.97207745733397
H         6.11053078564323   -0.95495934409161   -3.59394542076980
H         5.76364465545273    0.71556720720064   -4.26409074468137
H         6.86745963210366   -0.23703405118673   -1.30918872460535
H         1.64771056184848   -0.28175405580263    3.48983271451552
H         0.25395059919466    0.62410083022810    2.70771462838810
H         1.93162256227615    1.18788525329563    2.54639820536385
