30
 energy: -57.475375193743 gnorm: 0.121434723147 xtb: 6.4.1 (79825abcba525fcdf90b791dcacef51065a7a4e7)
C         0.76638630539362    0.98013216827145   -0.81571380384166
C         1.97837519780787    0.30413189548311   -0.18759906801753
N         3.01425427507746    1.13471184312141    0.44243049962465
C         3.95495273702839    1.81860461457853   -0.41090913704677
C         4.38846837066686    0.57122140321230    0.34864096657413
S         4.84093903125762   -0.65814262753472   -0.99222226333611
O         3.86374543679474   -1.70551853808995   -1.19979203353978
O         6.22218109073326   -1.01170226117523   -0.73205459855961
C         4.80915999603685    0.50979187621978   -2.37211534837650
C         4.48322865553345   -0.14556300131928   -3.69727933717225
O         6.12317211672665    1.10897156978076   -2.43163126227976
C         3.91051602661357    1.63912398999695   -1.87704769157693
O         3.27024426453131    2.36356065948678   -2.62218410487183
S         1.44162886609293   -0.66593381319701    1.30955959994278
C         1.01067899658018    0.58578684710868    2.49582630621648
O         0.20599801910619   -1.36672489740124    1.01623736514093
O         2.58486738797338   -1.41429607352523    1.81092706795694
H         0.86624389671702    1.41330566235838   -1.81255026165903
H         0.63916456432017    1.85972414060886   -0.18031210581622
H         0.01539025025267    0.18392360097784   -0.75999825914176
H         2.43072533721459   -0.50006624506556   -0.75747739055177
H         4.20042396499449    2.81196008490466   -0.04507033932733
H         4.97444432525607    0.56256252794736    1.25841764755507
H         3.40806243971516   -0.35215546035752   -3.71007756772210
H         5.16387337153897   -0.99559857682253   -3.82612891399172
H         4.68849560023470    0.47740829852430   -4.57290875258938
H         6.81069546124911    0.52469344031477   -2.04195862817097
H         1.02295319280584    1.54947163093888    1.98523977646927
H         1.67753582062345    0.62403776108188    3.35776918524871
H         0.02939080494991    0.29143814935656    2.87672578054144
