30
 energy: -57.469865775894 gnorm: 0.129037169195 xtb: 6.4.1 (79825abcba525fcdf90b791dcacef51065a7a4e7)
C         0.53419599415628    1.25346345162834   -0.39517524273390
C         1.75891404400458    0.36435571984798   -0.22204320102020
N         2.93505736090996    1.10530113748019    0.25496055849295
C         3.85262722290964    1.78043943320046   -0.62994919839333
C         4.34501532729902    0.62936578896505    0.23803724688003
S         4.83838798322729   -0.67246488584938   -1.01727153418973
O         3.76493722761880   -1.57884029379131   -1.36537485879799
O         6.13779721866581   -1.26771963684976   -0.77700361808204
C         5.03785214526027    0.52695123035036   -2.35547961531904
C         5.05248853337522   -0.11091074807379   -3.72832291357439
O         6.25033885290653    1.25287803486391   -2.05201205479456
C         3.88234018944667    1.48374547675551   -2.07730541195381
O         3.10922893061163    1.92289779356064   -2.91362408086811
S         1.36991250924046   -0.63477581653161    1.30144692394578
C         1.55916752367954    0.47777861319609    2.67482097359747
O        -0.04962621095220   -0.92769359602865    1.24632285227780
O         2.25550377291347   -1.78053639514906    1.44763358144612
H         0.57880076366726    1.89498635541165   -1.27707802396407
H         0.30965556690309    1.79306018511898    0.52787388419155
H        -0.19630202618742    0.44512705749787   -0.51354878060383
H         1.78075003413126   -0.25637103429311   -1.11105279989153
H         3.95825066548915    2.82702127508532   -0.35726003886511
H         4.91708483870089    0.80517000565003    1.13968337615382
H         5.86753776209532    0.31290729317251   -4.32405746301845
H         4.10910141312272   -0.07718732417835   -4.28628652762217
H         5.02627880154288   -1.19968998529685   -3.62426785482006
H         6.78215110294377    0.68833718162050   -1.44837027407535
H         2.59272711693213    0.57844091198413    3.00822656985559
H         0.95357866316115    0.13299410967406    3.51356554799289
H         1.16400437551922    1.46084426376030    2.40634361244243
