30
 energy: -57.474465263979 gnorm: 0.121124994557 xtb: 6.4.1 (79825abcba525fcdf90b791dcacef51065a7a4e7)
C         0.85687979517376    1.86924223280684   -0.27252189307036
C         1.93682571003972    0.80561507208543   -0.12140715065935
N         3.18713918727809    1.37433166839526    0.40120495696159
C         4.27909611014594    1.79415129140087   -0.44271033481530
C         4.38471206089309    0.49278641063374    0.34221754364632
S         4.43416903248143   -0.84085131805431   -0.97419585188330
O         3.20588130985267   -1.51957032824792   -1.32865121360225
O         5.55131799029554   -1.72730760601663   -0.71594266379374
C         4.98849350816303    0.31251170453419   -2.25156187405116
C         4.74072083642336   -0.16072967753172   -3.66804771741045
O         6.35817564922863    0.40856317946397   -1.79997439775568
C         4.20775300825312    1.57610797808163   -1.90254506706741
O         3.80249576748004    2.34068854624425   -2.76345610186397
S         1.41659313961331   -0.53985293969781    1.05744061972302
C         1.22449463350030    0.34346438343388    2.58799599975760
O         0.14669770395761   -1.00127248637469    0.52981646169875
O         2.39352761523627   -1.60120554626813    1.25119150428020
H         1.31091053492512    2.83789122731175   -0.48901426427909
H         0.29540257359519    1.99120989640386    0.65670894251087
H         0.17350659746842    1.61839413412005   -1.09174328168564
H         2.06656200901233    0.15074527733251   -0.97605949940718
H         4.75356004686782    2.72203866552564   -0.13488207156774
H         5.05113798955957    0.46268009525766    1.19433636190412
H         3.68056332764420   -0.34943522443339   -3.86624686997217
H         5.33596997261726   -1.05253476377888   -3.89783474257546
H         5.07114458102202    0.72292419806547   -4.22206090328501
H         6.69348401708721   -0.50745066984522   -1.67997035613907
H         2.02931852875401    1.07042344868255    2.70343705725817
H         1.35263984236881   -0.47739839494161    3.29430314785395
H         0.26241660444312    0.86167962242533    2.61059937031743
