30
 energy: -57.473998622005 gnorm: 0.132572247313 xtb: 6.4.1 (79825abcba525fcdf90b791dcacef51065a7a4e7)
C         0.95467988528934    1.80271797258766   -0.42716414973354
C         1.81063640860708    0.58902264354153   -0.08848488307866
N         3.14526945533802    0.93686374651835    0.41906511578241
C         4.19938748992467    1.54675213754240   -0.35403433999744
C         4.43082091018797    0.19513929977275    0.30959082320920
S         4.72046113704145   -0.90530722548282   -1.18007551113239
O         3.47846456399748   -1.49406909914191   -1.63371942580786
O         5.86650260335854   -1.72283388741349   -0.83545924573559
C         5.11805024825243    0.39761608777744   -2.36898239342153
C         4.89270043426777   -0.08410208492253   -3.78635528516649
O         6.47536999525305    0.78927442901454   -2.06324860293599
C         4.22697937135551    1.51331001297064   -1.83114993604113
O         3.72362899592766    2.41671150878210   -2.47960103953718
S         1.12343793439250   -0.48136098749285    1.27263425680149
C         1.09765325940249    0.53917204448629    2.72783135057787
O        -0.25597503809992   -0.80903256664876    0.96639765682186
O         2.13553648715331   -1.52238527249053    1.37429391484759
H         0.89412449739392    1.95465857595863   -1.50630308118341
H         1.15623862896044    2.77969625396380    0.01835828716788
H        -0.08741726384561    1.66197304045334   -0.11850288302633
H         1.84166183085049   -0.02726410899125   -0.98030585922843
H         4.60504802722370    2.41877422447590    0.15179788314377
H         4.98227286732239   -0.14394539583909    1.17680402421507
H         3.97850228288841   -0.68623042485581   -3.80893476197657
H         5.64868821914746   -0.83535875657047   -4.04430063773995
H         4.86284129637267    0.76873991368015   -4.47098919448335
H         6.99539159210273   -0.04050077005919   -1.97979381594727
H         1.93097843496570    1.24223950792103    2.75616712913644
H         1.09478961703540   -0.01907581288323    3.66455853181982
H         0.17729790145295    1.12817146335993    2.75386555847146
