30
 energy: -57.476075233439 gnorm: 0.130062245807 xtb: 6.4.1 (79825abcba525fcdf90b791dcacef51065a7a4e7)
C         0.92060282585290    2.20989158967721    0.09906620337274
C         1.82388474135722    1.01130119088754   -0.16148024399283
N         3.16192606575591    1.41531101577790    0.29268602906976
C         4.29174857829177    1.78202650047295   -0.52574703272890
C         4.30543023618816    0.46437961235455    0.23873773650572
S         4.39346469397285   -0.90584968630715   -1.03746804567612
O         3.05852309256774   -1.29029752289324   -1.44381719300323
O         5.47790452254641   -1.79748744463333   -0.67761580685385
C         5.15382159637621    0.20433169031995   -2.24516855861153
C         5.29244486733953   -0.31529958028499   -3.66028260885195
O         6.38163725007416    0.51786387782045   -1.54993292360184
C         4.18287688828427    1.33867884296875   -1.93121484964373
O         3.24548449165064    1.62826931590982   -2.65745006792079
S         1.39942700078605   -0.42750450912947    0.94318350119327
C         1.13538629815400    0.24828120620246    2.56594265538322
O         0.14564912257500   -1.00411460747272    0.49653879671073
O         2.54645313635574   -1.31918117780112    1.03066772737954
H         0.94115556621311    2.85333779545047   -0.78232377563098
H         1.35614543727823    2.91146552719760    0.81439785131441
H        -0.13738400951439    1.99926621289010    0.29232297982133
H         1.70394572099424    0.54730810076447   -1.13433258753931
H         4.96177550657862    2.60205828790200   -0.28190100561262
H         4.78435680165213    0.23752719878509    1.18229673492685
H         4.58029601986886   -1.14399879385998   -3.73048420184389
H         6.30192210802139   -0.68651578502511   -3.87381048351480
H         4.99450574343214    0.44699934725795   -4.38629036149834
H         6.74597295008395   -0.36386412107232   -1.31386243090352
H         0.85266672347362   -0.63615655013141    3.13811144188692
H         0.40083430072669    1.05229819557424    2.62159089993862
H         2.08933233279234    0.63664243539738    2.93174943406477
