30
 energy: -57.469787097584 gnorm: 0.133950569463 xtb: 6.4.1 (79825abcba525fcdf90b791dcacef51065a7a4e7)
C         0.87254457187880    1.06604829972763   -0.72148230880003
C         1.96379655008186    0.19179683570401   -0.11710235593414
N         3.11576462824788    0.95146402586120    0.38858611362570
C         4.02607190622675    1.72946811280354   -0.41569128725300
C         4.52977891075242    0.49285379819540    0.31771294488899
S         4.89122157813157   -0.67769326205050   -1.10114519088736
O         3.87036212189848   -1.69135122249474   -1.26030660649294
O         6.27221150939143   -1.04042270046954   -0.85251810579566
C         4.87368095027242    0.53511121539137   -2.44203424854087
C         4.61485874620364   -0.04023362669409   -3.81817749008321
O         6.13807328910409    1.22592052559861   -2.32679184974049
C         3.90226475693724    1.56848506890345   -1.87942151882522
O         3.16719585050670    2.27734338203460   -2.54813546384648
S         1.27412570251412   -0.67575868926325    1.38033203048502
C         1.01380662655953    0.64825560083443    2.53747127738128
O         0.01759849502607   -1.28777898130750    0.99238847222055
O         2.26192348201848   -1.53577004148194    2.01519087097789
H         1.06379106883886    1.49062712562417   -1.70862531989657
H         0.90977065272328    1.91260125518731   -0.03187007279339
H        -0.12003584045808    0.61412726075455   -0.61378424634854
H         2.32357257568102   -0.61490984409230   -0.74630992853413
H         4.31848851359144    2.71951350180760   -0.07635109074884
H         5.23382320798608    0.47046910762389    1.13927048408053
H         4.84856926272474   -1.10777531315888   -3.88571099133189
H         5.11183032351349    0.64327059001136   -4.51694866902130
H         3.52398331307274    0.02595463974420   -3.86881873868399
H         6.95565978130988    0.68074457196174   -2.31099465718046
H         1.95117897905835    1.20557223942577    2.52107432238552
H         0.90760230704877    0.40316108179725    3.59471108106383
H         0.16822672293105    1.20442241116056    2.12476655696713
