30
 energy: -57.471069232474 gnorm: 0.126258187548 xtb: 6.4.1 (79825abcba525fcdf90b791dcacef51065a7a4e7)
C         0.91465832426104    2.04898777978900    0.02210502312453
C         1.90240960859815    0.89081739950403   -0.03629317079972
N         3.22708084031528    1.33479389396784    0.41975152890358
C         4.20288879039971    1.74625819661622   -0.55969087948586
C         4.43422934228534    0.48009318815225    0.25524762983371
S         4.42396698961067   -0.89493911870629   -1.01878559446113
O         3.10288167612327   -1.38706152737620   -1.34671540309566
O         5.52764601149534   -1.82512503426418   -0.88775876198666
C         5.04045630056176    0.29944224619638   -2.22815730195734
C         5.09406005173042   -0.29075559615164   -3.62120216515414
O         6.29780196027513    0.66913395423390   -1.61857036482977
C         4.17330558450700    1.53788845368072   -2.02237918370850
O         3.51972141524811    2.01884273086838   -2.93424287640905
S         1.39962569866037   -0.54553780540240    1.03827662048300
C         1.10149574485488    0.31398564907445    2.56539451434267
O         0.09155409147493   -1.01329722327561    0.62104830747475
O         2.49983162430319   -1.48440083924512    1.20104287703920
H         1.32811882475428    3.02255043751124   -0.24719016949769
H         0.44464865911023    2.17834749562189    0.99983694253778
H         0.03904519799632    1.79335676648434   -0.58535017509183
H         1.93018516335818    0.60255011011186   -1.08139942738824
H         4.71565254225415    2.65024579220377   -0.24231257539675
H         5.13651669093438    0.24837427328396    1.04533322229490
H         4.08865293843755   -0.47165393437798   -4.01523129963214
H         5.59373840849598   -1.26644392057222   -3.64937584829959
H         5.64780048081782    0.38637334895314   -4.27833423858685
H         6.90478060857926   -0.07961834525095   -1.81056244364285
H         1.94944410094706    0.95935515241888    2.79781528015630
H         1.18803664683132   -0.45796913643730    3.33070697625914
H         0.12826375710936    0.80983732407648    2.52536084288065
