30
 energy: -57.480899140372 gnorm: 0.129596466439 xtb: 6.4.1 (79825abcba525fcdf90b791dcacef51065a7a4e7)
C         0.57443329282972    1.74564329867291   -0.10397938462568
C         1.76967471096516    0.80130216161116   -0.11025164316901
N         3.01386421256707    1.49154379918462    0.25772218768963
C         4.01903765343754    1.90496348698579   -0.69070914220198
C         4.28835230872654    0.72353863780025    0.23261204802307
S         4.39683287909841   -0.72512146099433   -0.95212238673092
O         3.13564426311518   -1.25088047977162   -1.42958396630799
O         5.46801778963418   -1.67011679753038   -0.70703474170664
C         5.10568732103626    0.34321223902992   -2.22702407915217
C         5.27220913512846   -0.09842818987654   -3.66542773035982
O         6.33044703316504    0.86664725409550   -1.66562784271315
C         3.97659832137077    1.35613097851581   -2.06210694154562
O         3.13900622856585    1.49881616578590   -2.93850018426579
S         1.62456958150430   -0.60026221327242    1.10842385869239
C         1.25177234984266    0.07862912946234    2.70838631744826
O         0.49956615854247   -1.44023684502115    0.74408941899636
O         2.97920882241635   -1.12483255188219    1.19891261798188
H         0.81349381887834    2.56357891873479   -0.78598020621152
H         0.27923880482469    2.13971582386512    0.87129995397797
H        -0.25658546965009    1.24913440572962   -0.61772457071491
H         1.75960239939662    0.25170019651047   -1.04510608133320
H         4.41541091167680    2.90473241317461   -0.53514701033498
H         4.84038706659142    0.74209389614703    1.16322997150143
H         4.36010986820159    0.15883785446006   -4.21380327746508
H         5.33973779442753   -1.19276619347991   -3.68286725461124
H         6.14299285745457    0.35978907762967   -4.14368213718391
H         6.81879270419034    0.03386242668874   -1.48150293787028
H         0.17541497764866    0.01622159054454    2.87300019637482
H         1.50785860005645    1.13818577218090    2.67895442728518
H         1.82846703826854   -0.55087410614015    3.39088246622303
