30
 energy: -57.473998623315 gnorm: 0.126589443227 xtb: 6.4.1 (79825abcba525fcdf90b791dcacef51065a7a4e7)
C         1.22549073613544    2.25040311327521   -0.28556302785900
C         2.06789657101242    0.98375351617421   -0.20573298539816
N         3.38444673353372    1.24140081703681    0.39439954671453
C         4.66999319309882    1.48358960675755   -0.21348755995015
C         4.38973056506079    0.14598674938165    0.45963125693434
S         4.26803938615802   -1.04306023525852   -0.98443873648711
O         2.96319671904909   -1.38515543234087   -1.50917232560264
O         5.28830857232425   -2.05551464686473   -0.79867512939039
C         5.00139358332703    0.09354705313632   -2.18423093973434
C         4.55085894150285   -0.16357480863681   -3.60644320573725
O         6.39817699598024   -0.04863008567559   -1.84076615314228
C         4.62878135025646    1.48839061009578   -1.69065663585299
O         4.22497928595458    2.45415236866200   -2.31853629445064
S         1.34533437106514   -0.30451115534489    0.92955825842984
C         0.81242218765873    0.58040619238993    2.37616704819194
O         0.22847680935016   -0.75104198062315    0.11889860406023
O         2.33051538397614   -1.23146111405198    1.46676573455791
H         1.46205108489009    2.78881405940286   -1.20504472024532
H         1.43807854444105    2.81415864295288    0.62580344530227
H         0.16005990937176    1.99446475954643   -0.26556087422428
H         2.25739058232426    0.51047227340838   -1.16292340957387
H         5.27905599432838    2.22529942786920    0.29617719256175
H         4.64879382253777   -0.22074196924983    1.44427968347131
H         5.08700065535557   -1.07905950308622   -3.87712099947635
H         4.91420193193313    0.65814144488743   -4.23509588661697
H         3.48062498324119   -0.37784640702182   -3.68155372399535
H         6.48348773884360   -1.00261598006004   -1.62043223762166
H         0.79855430091558   -0.13411694566014    3.20006145281345
H        -0.25130396743431    0.79642269309272    2.27161934817134
H         1.44370445606182    1.46025514353420    2.52449304540789
