30
 energy: -57.472138664289 gnorm: 0.117365314525 xtb: 6.4.1 (79825abcba525fcdf90b791dcacef51065a7a4e7)
C         0.44812159029650    1.42398257608236   -0.30503251748358
C         1.70405392973557    0.56716113964483   -0.21062624428775
N         2.94395390801503    1.25514808655397    0.17559623286350
C         3.97400506697601    1.90310048131013   -0.59897703958859
C         4.30350465619139    0.65045428708424    0.20297345174885
S         4.48092209378766   -0.75021273825489   -1.03016674134148
O         3.26116438545271   -1.43640222713581   -1.39938747405120
O         5.66630579728567   -1.53073143681274   -0.73660705249446
C         4.96075686881728    0.40897279211339   -2.33217800700216
C         4.90787576444544   -0.15181103375046   -3.73734914925725
O         6.23043643567923    0.79290879209138   -1.75798879872179
C         4.14552688279527    1.66693495791751   -2.04761649556864
O         3.64400666801604    2.36354422086693   -2.91548613227772
S         1.66521817318636   -0.63211863711393    1.21444497801096
C         1.17180612814655    0.30883994067984    2.63953887251745
O         0.57434490999475   -1.56531876772448    1.00692942065390
O         3.00210993906074   -1.13753625871195    1.48955070730025
H         0.26247177672608    1.98290024816801   -1.22396609592981
H         0.36788329600579    2.02751707604612    0.60211171147931
H        -0.41328872109757    0.74783534020021   -0.34798099957310
H         1.95153138670775   -0.01316207971871   -1.09272401166683
H         4.17097851015101    2.94208955192112   -0.34887220297636
H         4.86142757779258    0.56768465308163    1.12655756191307
H         5.85758468344106   -0.05132361856781   -4.27286934415083
H         4.16696655014504    0.42083459872383   -4.30793695006612
H         4.61892203817447   -1.20594387854960   -3.68976425402744
H         6.76331048836049    0.16972018382032   -1.21614449800869
H         0.22295167618130    0.82765567056396    2.49796525104319
H         2.03112070741723    0.93875165937283    2.87169477594959
H         1.03021944411786   -0.45196476755421    3.41140770031668
