30
 energy: -57.472259507529 gnorm: 0.131986623540 xtb: 6.4.1 (79825abcba525fcdf90b791dcacef51065a7a4e7)
C         0.69176894583085    1.81760877336955    0.02765375553425
C         1.88368338889582    0.90038533325536   -0.21413685289441
N         3.14346009182904    1.50532943184305    0.24067197293878
C         4.31322968428696    1.86483627281260   -0.52300688980878
C         4.32845529571580    0.61070057139825    0.34170630388622
S         4.38172398528312   -0.77154002762023   -0.92342339777028
O         3.08751487599400   -1.27174220494087   -1.33550275265798
O         5.44173129329368   -1.62800904713097   -0.43010141036970
C         5.04601356619696    0.25430018832504   -2.25592369497532
C         4.71671231370680   -0.27603994864332   -3.63508317594345
O         6.46592935248918    0.33655367727367   -1.99851385219383
C         4.34883346585669    1.58166694085322   -1.97293711345044
O         3.58519569927037    2.14913348161514   -2.73767483848100
S         1.55552501602961   -0.53316390111092    0.92947883541373
C         1.05596979725819    0.14858952327883    2.49325885602251
O         0.43665072933106   -1.32780909200965    0.45980978242369
O         2.80808627006212   -1.21712230739367    1.21531258570745
H         0.67834090969428    2.54596744990906   -0.78512361872281
H         0.74222164343797    2.36106131772607    0.97407680331497
H        -0.13304303044302    1.09982292846662    0.10192396159862
H         1.92369737809279    0.42408243278349   -1.18761054100526
H         4.88560490605556    2.73325496420352   -0.20822947759583
H         4.84273558745738    0.55307269887120    1.29214367498552
H         3.69619877469438   -0.48384923994394   -3.97300927054503
H         5.32968078633928   -1.17046919028185   -3.79850259328171
H         5.11207883468055    0.47948060610340   -4.32052364613202
H         6.69044152066765   -0.36987237318687   -1.35316854533838
H         0.14262869511664   -0.30851243829668    2.87588589435148
H         1.02500136988442    1.23586334788059    2.57061045239538
H         1.83624619056254   -0.28743719436492    3.12230697180800
