30
 energy: -57.474818244329 gnorm: 0.128260951999 xtb: 6.4.1 (79825abcba525fcdf90b791dcacef51065a7a4e7)
C         0.73173988835588    1.62761113394239   -0.46982847333435
C         1.79339882821895    0.56512150941792   -0.21602200186706
N         3.04730353509277    1.09422081049081    0.33861521434574
C         4.21917188007352    1.61756336547062   -0.31990509263686
C         4.25504281880937    0.22559609963867    0.29812232431066
S         4.55893986651544   -0.88450139804308   -1.18150929858369
O         3.36255627287784   -1.41939124087748   -1.79595864686796
O         5.70732281594059   -1.66294422983519   -0.76226638232608
C         5.15873797487231    0.38888185759016   -2.31637631904927
C         5.04589388207277   -0.09056651141505   -3.74787075254164
O         6.51873271202527    0.69909411638565   -1.93773536969103
C         4.30903789209102    1.54307976774139   -1.79303992579955
O         3.77395030622937    2.36794279181203   -2.51641189954923
S         1.26891348586223   -0.44842373068966    1.25647566003652
C         1.31813650557792    0.49008463836005    2.76529315547642
O        -0.13552523302255   -0.61137616368334    0.93254965612129
O         2.12882231276420   -1.61384439839761    1.40056314914662
H         0.74556507643565    1.93396172187285   -1.51732640129918
H         0.82156194463238    2.50501799341503    0.17491327438483
H        -0.25647279881969    1.19142671404447   -0.28482520263814
H         1.97297946005811   -0.09793800058154   -1.05519988057858
H         4.67208122231389    2.49399378523391    0.13571751003103
H         4.79924642149358   -0.14673220667369    1.15623088709469
H         4.12587645365098   -0.67731340954586   -3.83799644555544
H         5.99855900131420   -0.58720786632911   -3.96745321693884
H         4.87147291207790    0.80824052291360   -4.34676796725506
H         6.94805128308055   -0.13236042639443   -1.63726415338521
H         1.90335783765631   -0.05202885880928    3.50904484228356
H         0.27099904266096    0.45001800661876    3.06696264647864
H         1.64845016506209    1.52084699426238    2.61339209364205
