30
 energy: -57.465956163122 gnorm: 0.126869432811 xtb: 6.4.1 (79825abcba525fcdf90b791dcacef51065a7a4e7)
C         0.80469650644830    1.87949275414674   -0.28730999835342
C         1.84756418496115    0.78410776540895   -0.10570520618742
N         3.14068410938566    1.22546555970734    0.43548786366631
C         4.15858193827067    1.71282199965217   -0.46294363244384
C         4.36963039007813    0.40042240059439    0.28128945153357
S         4.46216502853785   -0.89560021879697   -1.06991095199611
O         3.20128985233418   -1.33065389302461   -1.63197048621551
O         5.56321916552978   -1.81663772676108   -0.87018376613438
C         5.08657610179365    0.33081456331931   -2.24260163332694
C         4.92719475581113   -0.14429030436470   -3.67111617615252
O         6.41180655739491    0.47831904009515   -1.68475490636291
C         4.32163041227843    1.61304061963258   -1.92827945237845
O         3.79647696008680    2.39079825399416   -2.70885078220540
S         1.32496439603625   -0.51638156586974    1.12157843549054
C         1.10621586167780    0.37964700874611    2.64112868878934
O         0.07823283662200   -1.19623900393576    0.82597067128382
O         2.53095754606323   -1.29294807792440    1.36842799096164
H         1.18732870722245    2.49325978116930   -1.10473055688512
H         0.93806966349235    2.40718064656198    0.65998077815938
H        -0.23492713530903    1.55318994248007   -0.40459827951114
H         1.98906114873355    0.27516596536394   -1.05284482218541
H         4.71414310489323    2.56592098197018   -0.08291316329852
H         5.00555272356740    0.13407256957593    1.11543390858275
H         4.36209401393204   -1.08200801876336   -3.68427940040226
H         5.79219180415250   -0.41851634152022   -4.28676226737485
H         4.35468726667578    0.57618342320656   -4.26281493026189
H         6.95658278623086   -0.30878733461513   -1.90745753114630
H         1.83587092788462   -0.01521758798120    3.34909977394869
H         0.13902602724411    0.08645741336505    3.05062883316085
H         1.20481791653766    1.45683658181238    2.48430924214755
