30
 energy: -57.473088032153 gnorm: 0.134355425777 xtb: 6.4.1 (79825abcba525fcdf90b791dcacef51065a7a4e7)
C         0.74214604020406    1.74566440744316   -0.23511691073635
C         1.83491916534014    0.68642727295425   -0.16965539569399
N         3.08730875490374    1.31834702294782    0.26857203028591
C         4.17427832823707    1.81621419204250   -0.53854460411855
C         4.35195622454346    0.53385197547944    0.26444678708920
S         4.60160611317618   -0.79998504693781   -1.02881782306390
O         3.34343827889643   -1.42540905098798   -1.37644889469297
O         5.79700156381526   -1.57383901004856   -0.75918654291718
C         5.05293665777972    0.32853518710436   -2.36744721913152
C         4.99654848131387   -0.26376222898820   -3.75949067617892
O         6.36337900916241    0.74600540831979   -1.92287353758923
C         4.19314942966401    1.53064645649438   -1.98831868883723
O         3.55851634773398    2.22413962777812   -2.76696675950146
S         1.38969165824887   -0.51912389900406    1.17905771271752
C         0.93487293176655    0.29675581595660    2.69141723141487
O         0.15845392358764   -1.14951444245930    0.74249034214853
O         2.49001506091922   -1.42015858626354    1.48862939803687
H         0.70916886494084    1.99584518982050   -1.29700947223839
H         1.07747937337647    2.55119094405286    0.42236409834081
H        -0.22798332381437    1.35229917664663    0.08916720331349
H         2.06583103675458    0.01043975678103   -0.98564388176125
H         4.70425044688676    2.71911846144279   -0.24743887479040
H         4.76524933896687    0.40265359079134    1.25596685710431
H         4.45791022190596   -1.20520823271365   -3.60990832775470
H         5.96753252687551   -0.49521495452487   -4.21342849443989
H         4.38661685391879    0.39556112329688   -4.38417520498831
H         6.71610035951484   -0.14598655289925   -1.70874265713116
H         0.31606103970332    1.17955909244299    2.52628746245908
H         1.89397816742858    0.58513096943110    3.12276813385089
H         0.47205234919614   -0.51976728148667    3.25154152151418
