30
 energy: -57.478389725560 gnorm: 0.123514666279 xtb: 6.4.1 (79825abcba525fcdf90b791dcacef51065a7a4e7)
C         0.49118749793460    1.27981002177794   -0.26612090537779
C         1.75937478812528    0.45438378261391   -0.09063843728285
N         2.89987248643511    1.31818726249829    0.24544834133850
C         3.86997315528313    1.88245843205598   -0.66081552106377
C         4.26019631787865    0.71468250499532    0.23631452799730
S         4.61485253665429   -0.59695377243160   -1.05512228219080
O         3.49096965587206   -1.44022931361616   -1.40263122378218
O         5.87736735145778   -1.26755684285676   -0.81664981371021
C         4.98665341990660    0.57186074599243   -2.38358852635389
C         4.82746562446703   -0.09338923287401   -3.73410048826385
O         6.33803211719962    0.98043891791424   -2.07370823286264
C         3.91200595480066    1.62107671096965   -2.11465974795411
O         3.23949352312457    2.09049788169563   -3.01873688511299
S         1.67299171976536   -0.71602676794828    1.35618058505214
C         1.01609241013164    0.26282831243652    2.68662304109697
O         0.69919407378011   -1.71893319379799    0.96910628617919
O         2.97535106492991   -1.21823462066566    1.76856043188316
H         0.31016348202649    1.50209117322703   -1.31926625617580
H         0.55082856637245    2.20541740429063    0.31119758904022
H        -0.44566441963253    0.79040331126029    0.02342518335583
H         2.05772387885093   -0.11081173751412   -0.96679963665454
H         4.24547521411221    2.84880049090457   -0.33519234276414
H         4.90518878949194    0.77617671785177    1.10311299272736
H         3.94514059018565   -0.74091363931582   -3.76636978880812
H         5.71368535115125   -0.70687414369429   -3.93582005369333
H         4.65773759678528    0.59814435451681   -4.56471973130897
H         6.73454106702081    0.16449472583550   -1.69564769296722
H        -0.04214305644021    0.00405748305798    2.63453678573783
H         1.32196356665809    1.30108643425652    2.55407270742196
H         1.46717552111141   -0.01223682267849    3.64344866720872
