30
 energy: -57.469010859170 gnorm: 0.129639192021 xtb: 6.4.1 (79825abcba525fcdf90b791dcacef51065a7a4e7)
C         0.20030510658451    0.65510012245393   -0.27949153869976
C         1.62361502244817    0.14963147240148   -0.08172425354293
N         2.57860399651055    1.25058755585771    0.10731948255393
C         3.28993976637836    1.85237807434022   -0.99388942751765
C         4.05269406093813    1.05288402942457    0.05483944227768
S         4.70173857214688   -0.32274896767993   -1.04076763509484
O         3.85329181910309   -1.47151633409385   -1.27626811529212
O         6.07817870924395   -0.71873246288839   -0.81911278298744
C         4.80738388454363    0.75747419582626   -2.48684606448279
C         5.00610449645453   -0.15715570871790   -3.67669609807845
O         5.83470154834757    1.71358353278329   -2.14092749850437
C         3.38143459468978    1.28407536753465   -2.35492245565326
O         2.46801126046593    1.29092787009390   -3.16461100212275
S         1.98750504915138   -0.79285984965689    1.48349213473845
C         1.67816801370128    0.28935449748267    2.85930963898208
O         1.07154154996233   -1.91621167456652    1.53845769105703
O         3.42814448802126   -0.99565521889318    1.52640802517450
H         0.05242112345092    1.24937966391477   -1.18296034841487
H        -0.12777077866835    1.23192442688970    0.58840399847919
H        -0.53351869951030   -0.15884753622313   -0.28575347183740
H         1.95243080876189   -0.64015825665521   -0.74822928441861
H         3.29606977892560    2.92775553397723   -0.83776462848450
H         4.65511814953602    1.61507007657732    0.75638662333608
H         5.51926850079241   -1.03969703674377   -3.28095610768761
H         5.63384081696218    0.45742932063574   -4.33295235642567
H         4.08606175675782   -0.45266649292888   -4.18967696182782
H         6.67516536018758    1.23096508024003   -1.97778935438320
H         1.44670304213187    1.30346486581188    2.53137404981472
H         2.57863476227025    0.24327060491376    3.47261428802805
H         0.89366405241778   -0.16701186672162    3.46835426527856
