30
 energy: -57.472961927582 gnorm: 0.128660884428 xtb: 6.4.1 (79825abcba525fcdf90b791dcacef51065a7a4e7)
C         0.70308644282351    1.24693472801308   -0.50698742456576
C         1.84778040476561    0.32027589494802   -0.11788491463120
N         3.02493149468884    1.09440020588203    0.30031645556499
C         3.93561172237376    1.77143192908080   -0.59024595198371
C         4.42430480336195    0.59148053358021    0.24024260133428
S         4.76408307677615   -0.67691034020369   -1.09755968031034
O         3.66012217277943   -1.54754024891139   -1.44145316947837
O         5.99388402805291   -1.42225209678499   -0.91706991785768
C         4.98104102667841    0.56105534813365   -2.39738891491340
C         5.09560123403239   -0.04391303376599   -3.78038206781166
O         6.16156580807880    1.28195100582369   -1.97803585124856
C         3.83722281696360    1.50573108301064   -2.04058129940087
O         3.09152563216847    1.99983623780645   -2.87111158836948
S         1.32403922342073   -0.66210183173237    1.37584778880459
C         1.23281397761511    0.52211735408077    2.69836583118187
O         0.05313369920050   -1.33637020854406    1.19121038986552
O         2.45691467034128   -1.51290219639996    1.70922698458099
H         1.01861513049118    1.76544688002906   -1.41411504773178
H         0.49217925578628    1.96223825230829    0.29142459212167
H        -0.23750405720377    0.73403367045976   -0.73778904969886
H         1.89838958553992   -0.48278181409795   -0.84497065095614
H         4.17607860575172    2.78905695317790   -0.29450263330262
H         5.01792546342774    0.78276995814484    1.12464021858194
H         6.15203124071380   -0.22562779372756   -4.00345608725999
H         4.66517453608347    0.73630854072098   -4.41946506358866
H         4.54956641189535   -0.99194123567567   -3.78694975774498
H         6.95523698770749    0.73583713122742   -1.78371719945556
H         1.80437809361966    0.00266771233219    3.46844644641403
H         0.24769959873736    0.90383283633982    2.96845773120394
H         1.85195981213641    1.40972490599257    2.54518831916916
