30
 energy: -57.470189305251 gnorm: 0.132658568732 xtb: 6.4.1 (79825abcba525fcdf90b791dcacef51065a7a4e7)
C         1.16829922192589    2.05447769348424   -0.14288905308707
C         2.00234642906392    0.78010343830882   -0.11537357468182
N         3.27373089216835    1.21117502934372    0.48262692318205
C         4.37505874538970    1.67503865420675   -0.32528332546717
C         4.46685494291985    0.32764208305925    0.37963723527475
S         4.59292533998860   -0.94561941850236   -0.99035956000821
O         3.35961610437225   -1.67026299139298   -1.21133207417707
O         5.78747942677855   -1.74835938377898   -0.81956630860349
C         4.86359123239457    0.21306363399477   -2.35174833506766
C         4.29750935462141   -0.14064909847057   -3.71050492170501
O         6.27172817289151    0.53758606939020   -2.31978199113749
C         4.33586724383632    1.53224827928184   -1.79559794787622
O         4.04096678385809    2.50038428772715   -2.47804288407267
S         1.41089065753953   -0.48282442313939    1.11985978957162
C         0.41323022092306    0.32093156516635    2.35209396575675
O         0.41251035095283   -1.19314125082127    0.34357605621127
O         2.59871735262128   -1.15193655442969    1.62953265227545
H         1.61576132825070    2.73855611354536   -0.86615118511668
H         1.25783349553827    2.45002898732895    0.87156918327772
H         0.18486684857385    1.76383225074156   -0.52945518208900
H         2.10928507344747    0.32307868581358   -1.09302847169641
H         4.75952515957426    2.60922102881381    0.07513908377915
H         4.95583293675874   -0.00564751778013    1.28570289313408
H         5.08851865598120   -0.62865213519000   -4.28928290314493
H         3.85509572318596    0.75589605696497   -4.16096788962851
H         3.52855038516154   -0.91728175708057   -3.66052043241998
H         6.83217413776792   -0.11711201868158   -1.84735762928641
H        -0.11485860958113   -0.46633728233297    2.89141536494104
H        -0.41394389868140    0.78730012656262    1.81600626427948
H         0.92683523569281    1.02645945391596    3.01019150204691
