30
 energy: -57.469794204548 gnorm: 0.132213255251 xtb: 6.4.1 (79825abcba525fcdf90b791dcacef51065a7a4e7)
C         0.32075160738472    1.39590784806832    0.12836500561871
C         1.58651213078723    0.58775683703673   -0.12690714178814
N         2.78108783675118    1.41383295457256    0.09766500445897
C         3.72501182441214    1.91783678007290   -0.86970230030774
C         4.14403495125135    0.81620991707579    0.09552065243253
S         4.49240820642921   -0.65031520026607   -1.01889389155677
O         3.19829180739437   -1.06993994123820   -1.51302612703467
O         5.60922272891749   -1.46007186483458   -0.57443834297328
C         5.08961691980483    0.47725170911854   -2.29995612806697
C         5.35034893950269   -0.21627002337633   -3.62011796131635
O         6.24601011292204    1.07091174511687   -1.66788900761865
C         3.90231145098425    1.43449630452625   -2.25487259876124
O         3.26687265682237    1.78778886559418   -3.23537586827817
S         1.73068982404162   -0.72042121074190    1.19161141783458
C         1.31595941700130    0.07161677882138    2.72797908566843
O         0.73017260414688   -1.74746873333450    0.97236647570189
O         3.13670727105828   -1.09003265593696    1.26169740442605
H         0.03634213462292    1.87466352893664   -0.81035645389519
H         0.61640032671391    2.23449918130337    0.76315562642617
H        -0.54056206745576    0.87466679640617    0.56137065443441
H         1.60499806678241    0.09458210028236   -1.09259527835614
H         3.91756533546413    2.98701485365130   -0.84459278135150
H         4.74276901566648    1.05916654278852    0.96363692885649
H         6.34758239739520    0.05985074708138   -3.97804167065024
H         4.73818317479605    0.17177829910805   -4.44298581162911
H         5.45324723436408   -1.30203975707536   -3.53368498473560
H         6.49142321108805    0.27839742449474   -1.14100428902562
H         1.75547286588772    1.06911544521324    2.69107431856771
H         1.75736566127912   -0.35303292199249    3.63016523185331
H         0.23282006159343    0.06570316431675    2.87435615561408
