30
 energy: -57.469027133208 gnorm: 0.143086774634 xtb: 6.4.1 (79825abcba525fcdf90b791dcacef51065a7a4e7)
C         0.53125455672930    1.60882917932983    0.02968334265062
C         1.75233620289361    0.71813043134766   -0.16015071548339
N         2.91600921527714    1.53375290135293    0.21464342055690
C         3.90801710809693    1.95017757405697   -0.74625338317335
C         4.26757129262030    0.91911163412127    0.31602778998471
S         4.57367733991058   -0.58086685482019   -0.76579625020346
O         3.41142430638628   -1.38156567003668   -1.08679179606995
O         5.82516066365174   -1.17669507222971   -0.34235854480611
C         4.83629772138356    0.33718998150800   -2.30117503716863
C         4.78216261050778   -0.49516408976560   -3.56451859065875
O         6.09967518058751    1.01660965417187   -2.12382621570952
C         3.84344251593526    1.48553120210569   -2.14756840097998
O         3.20859971875027    1.83693247862837   -3.12913680700540
S         1.75281963338997   -0.73972099385235    0.99971013624356
C         1.07383768135078   -0.00796898253320    2.47051726205716
O         0.91026889163624   -1.80244772434291    0.48526887712010
O         3.13686354696613   -1.09325456546609    1.27871942999118
H         0.55906834686261    2.50006672495479   -0.59977337518334
H         0.46436233951738    1.89058079294765    1.08312730519520
H        -0.35447555208883    0.96356520841334    0.01687874269453
H         1.81344902400233    0.39318692670999   -1.19300770914416
H         4.12960457004117    2.98273151339519   -0.49016646578746
H         4.88574505096441    1.06761860342623    1.19178068422747
H         5.71251643829249   -1.06264731950038   -3.67049580682448
H         4.62507032325658    0.20522815668819   -4.39350148408837
H         3.94392374498285   -1.19752713353531   -3.53295290701807
H         6.74988425210761    0.40586661024016   -1.71135180260969
H         0.00905623635329    0.15556187477086    2.64091607726648
H         1.60837185477962    0.94163973718380    2.43022855521759
H         1.40697588942991   -0.68018380692646    3.26537463590834
