30
 energy: -57.466071488752 gnorm: 0.138569669874 xtb: 6.4.1 (79825abcba525fcdf90b791dcacef51065a7a4e7)
C         0.91125975008813    1.75903866360787   -0.33362401448399
C         1.81243366071716    0.54763448284940   -0.13161640778902
N         3.11390270255190    1.02443050433074    0.35694235704277
C         4.25531149219383    1.53618151241122   -0.36146445760797
C         4.30118853454323    0.13538163026009    0.23558835369775
S         4.61587808554964   -0.95217966883766   -1.25845338711828
O         3.36597915486245   -1.39493348324068   -1.83872104533832
O         5.73298561794505   -1.85946964033955   -1.08693977279565
C         5.18399905344520    0.40403269679806   -2.31064748658306
C         5.14552362182213   -0.08004957557316   -3.74451109367402
O         6.46870432120279    0.93996220643231   -1.92141974208974
C         4.24266633327718    1.50829261164645   -1.83889887540886
O         3.52154100060248    2.14574829008226   -2.58964064697014
S         1.16794668412247   -0.43287190041669    1.31539843061619
C         1.09152913283639    0.61162462935446    2.75169173565173
O        -0.19973140005256   -0.89224031405342    1.16584246578811
O         2.23708014806087   -1.40089592388763    1.51108403240561
H         1.34649933924070    2.43608555551359   -1.07082665979225
H         0.55498911157806    2.38299458314682    0.48939054887937
H         0.02320055808514    1.43919461624166   -0.89048848303047
H         1.93424927097824   -0.07410922378161   -1.01179384326810
H         4.72526772517528    2.32972194841912    0.21323889060373
H         4.84079514679240   -0.20911360286216    1.10810433930576
H         4.10965182984379   -0.28921594152483   -4.03094728665774
H         5.81351324802227   -0.94496384410215   -3.83480555702596
H         5.55614191863136    0.60031091219190   -4.49647974567399
H         6.99132263485913    0.32510746785195   -1.36040477577962
H         2.10294404233176    1.00356523151584    2.86553402993499
H         0.80869914613529    0.15344866549708    3.69994732747142
H         0.41279605679444    1.43990211492988    2.53276275473757
