30
 energy: -57.476037315125 gnorm: 0.136712904777 xtb: 6.4.1 (79825abcba525fcdf90b791dcacef51065a7a4e7)
C         0.58542056367191    1.46299151313757   -0.35856466117603
C         1.79177393859122    0.54562875197287   -0.20501116449824
N         2.94458998175367    1.36515996165775    0.19402461357702
C         3.96627741472922    1.96676213731656   -0.62758421499511
C         4.30808888299849    0.77174407376024    0.25327547635169
S         4.63767813580595   -0.64201352504735   -0.93274315075821
O         3.70413169474427   -1.69673011724265   -1.26598897344044
O         5.94176421532414   -1.12792047395742   -0.52805167417543
C         4.96475800346458    0.47691058782417   -2.31484786107213
C         4.84852111417373   -0.38207358451236   -3.55598283624807
O         6.29601137149518    1.01861583167551   -2.16153054083338
C         3.97401698461062    1.60927632227876   -2.06142316750941
O         3.06012593228390    1.92001502855948   -2.80857060979227
S         1.57413619671183   -0.66535584226801    1.19383060550169
C         1.00146872122091    0.27053591084990    2.59236901742237
O         0.50303323202475   -1.57157774301392    0.82582248982037
O         2.89317811127855   -1.20802009153127    1.48375071387936
H         0.70432672892983    2.00141154251955   -1.30050888969647
H         0.36485186579747    2.19878250652438    0.41832902035185
H        -0.32058185937593    0.86037937052831   -0.48920001221099
H         1.99649172041476    0.04671111399670   -1.14590883093055
H         4.30793887402480    2.98450001951026   -0.45927998724391
H         4.89592763062863    0.70912892588288    1.15973086452325
H         3.85184650463066   -0.83529732973185   -3.56337135405630
H         5.61823397768980   -1.15859675900598   -3.63961171752026
H         4.91637022337865    0.23184737437950   -4.45900674911823
H         6.79557376127977    0.34010275222184   -1.65559431614083
H         0.47300646748794    1.19307320044284    2.34907861822776
H         1.82460566704819    0.58547312528496    3.23452694361292
H         0.38174792149445   -0.46502420131507    3.11155061589225
