30
 energy: -57.478141610152 gnorm: 0.127017618329 xtb: 6.4.1 (79825abcba525fcdf90b791dcacef51065a7a4e7)
C         0.82543043757928    1.87681616840933   -0.40294328371283
C         1.83507890263946    0.73749248936819   -0.34841652324389
N         3.09744082446719    1.14339660798793    0.28524721633373
C         4.30083531338040    1.65343652308404   -0.32509107998021
C         4.30337865373563    0.27190765499458    0.31692838904968
S         4.36958571505747   -0.97554080260414   -1.08073701916499
O         3.04041028361008   -1.30323098068211   -1.55073772783938
O         5.31943290915059   -2.02346631396555   -0.76425053122502
C         5.11268314593876    0.25009929767926   -2.18291594685641
C         5.11620364114569   -0.22166105091741   -3.62139105065693
O         6.38276089233974    0.56881659484822   -1.57094527455378
C         4.38145241826923    1.53203636376769   -1.79563956081208
O         3.80529567784064    2.34386750387902   -2.50200940434247
S         1.32199603384096   -0.39855015642830    1.03605495134965
C         1.45213373893167    0.52272312124146    2.55067398763340
O        -0.07118307268185   -0.79295540775493    0.94987988776669
O         2.35336255712105   -1.42501145166790    1.06876629781543
H         0.94653386787889    2.43659123221390   -1.33207167322295
H         1.04545686537439    2.55573582341622    0.42425632569069
H        -0.22594854281163    1.58835877676792   -0.29139982067953
H         1.95569458748516    0.17252002570076   -1.26622620142105
H         4.84094875983996    2.46432951047935    0.15613562039834
H         4.66947852961848    0.02010981573861    1.30369329596796
H         4.08618817527597   -0.32189299721035   -3.97894989651459
H         5.55761263939998   -1.22516365300128   -3.59729650704997
H         5.68653215452540    0.48333786290878   -4.23348299762998
H         7.00597286453037   -0.18775988286834   -1.64244992379624
H         1.00797366017038    1.50296605688842    2.37352084926520
H         2.51667381458441    0.71950822112755    2.68158133952832
H         0.95902655466438   -0.04225645677867    3.34584407115612
