30
 energy: -57.473242173149 gnorm: 0.138880685295 xtb: 6.4.1 (79825abcba525fcdf90b791dcacef51065a7a4e7)
C         0.58232369285494    1.12673231321750   -0.50980897517371
C         1.77008121743258    0.22265296852160   -0.20600932786726
N         2.91037991137547    1.01837350510735    0.26979865442568
C         3.73994372354320    1.79872824195185   -0.61545961762740
C         4.35946551362722    0.68347054681939    0.21713302463179
S         4.81809615170800   -0.61766925659623   -1.05198981099010
O         3.82345320971105   -1.63304542565781   -1.32527629356557
O         6.13856800092224   -1.04430792802145   -0.63383337670985
C         4.98122446179331    0.55351650112772   -2.41979787971333
C         4.82540593977287   -0.09477679794528   -3.77892157864942
O         6.12247242229470    1.38932790050919   -2.12288257547123
C         3.85960785177558    1.52429205616708   -2.06256542141291
O         3.21107351038442    2.11396083443879   -2.91208216026813
S         1.46248522529590   -0.69074930930350    1.38825827206854
C         1.44594685013587    0.40539796878532    2.78752190897084
O         0.07925303518354   -1.10306461605138    1.24475056354060
O         2.42192285322047   -1.77448556926229    1.54124482233545
H         0.68624294910348    1.33729112239644   -1.57571680691442
H         0.69622874123431    2.02097648676855    0.10740712979797
H        -0.37882524981785    0.62809672077718   -0.34068585539467
H         1.99211609895137   -0.56265302110726   -0.92023033632279
H         3.74320236458259    2.84956084695201   -0.33871183621541
H         4.96457985253536    0.71072837220978    1.11392167751028
H         4.11396767600563   -0.92169221494937   -3.68461823079269
H         5.80175760389983   -0.42608879768148   -4.15229767630573
H         4.53033583294249    0.68233526094204   -4.49024788450817
H         6.93865527666899    0.90718582058074   -2.38230232574399
H         0.75972309431900    1.25091731309498    2.72643493489926
H         2.44591416474550    0.77916094742946    3.00994782615026
H         1.11954728534247   -0.28987013253802    3.56515785973501
