30
 energy: -57.476039870740 gnorm: 0.121140366307 xtb: 6.4.1 (79825abcba525fcdf90b791dcacef51065a7a4e7)
C         0.97323209707678    1.58109839636228   -0.68020528716614
C         1.95149828261637    0.51931712651786   -0.19436844096753
N         3.15807367958757    0.97942508136124    0.50728818098356
C         4.31766801257083    1.51932344659760   -0.15954206665086
C         4.34639869291759    0.09324959846433    0.37553307854060
S         4.54341601391048   -0.94317651077512   -1.17397804112066
O         3.31249553255649   -1.43210549643270   -1.75773489463621
O         5.68065148304625   -1.83746148037515   -1.08754223381168
C         5.11247422538689    0.41096309498900   -2.22833306568105
C         4.81138133636155    0.03525320783416   -3.66359122929362
O         6.51372594613127    0.61150811245916   -1.93599488715676
C         4.36246784463808    1.59958263027833   -1.63443235699083
O         3.85714108492503    2.44670667217775   -2.35346676438724
S         1.19416138205296   -0.42485311690653    1.22182065765222
C         0.98962359599952    0.80686729661787    2.48704009164703
O        -0.08998336539895   -1.04126539526520    0.94807289621668
O         2.29767237773523   -1.25782367370375    1.67660990761423
H         1.41868627265331    2.01234468468999   -1.57847637347662
H         0.84815715212210    2.39887046435558    0.03338270494309
H        -0.04475699372933    1.24948023035327   -0.91424582577976
H         2.15798287169611   -0.12294315294856   -1.04347531150113
H         4.72450508477310    2.41437168130816    0.30329846512205
H         4.82354368286940   -0.22043479150267    1.29481052242254
H         5.41030008380964   -0.80796357492541   -4.02290783440669
H         4.88326325874986    0.83778166878589   -4.40737949360454
H         3.79247342615404   -0.36037363446930   -3.61604435337809
H         6.80335676679902   -0.26703520428276   -1.60404658959925
H         0.46708824468299    1.70603695359057    2.15842427104772
H         2.01956169270812    1.13511769913201    2.63051787115706
H         0.58916841152378    0.40232133951450    3.42011580902402
