30
 energy: -57.462266176618 gnorm: 0.150889756468 xtb: 6.4.1 (79825abcba525fcdf90b791dcacef51065a7a4e7)
C         1.07484443028226    2.15068588163077   -0.07812255587333
C         1.99990570586444    0.94142865967464   -0.12691003692035
N         3.27777080469901    1.37677691016407    0.45393266629911
C         4.32685677631676    1.74737108688267   -0.46415796193604
C         4.45693242749650    0.47357420963867    0.36127484623670
S         4.48437631850409   -0.86528877894649   -0.95046916246951
O         3.24105253371559   -1.42704952136538   -1.43374929306104
O         5.57686390339429   -1.73800483141021   -0.56920962714227
C         4.96297926425382    0.27058053595988   -2.27331683224640
C         4.85158648152881   -0.48130623054648   -3.58252987150068
O         6.31932193438141    0.70717893309004   -2.03061804469933
C         4.16941107891634    1.52394081219452   -1.91641128299113
O         3.23995775658430    2.05641780626211   -2.50170566807047
S         1.37545705590485   -0.44915592468120    0.94404589286477
C         1.07373880077554    0.12530797399354    2.59895024702675
O         0.18196723656178   -1.00694936590239    0.33710422055209
O         2.44073978120690   -1.42840873223255    1.10103755192593
H         1.45913330885455    2.88866081848095   -0.78452809152788
H         1.03577078808159    2.55358316265691    0.93664330613849
H         0.15381087785292    1.78850161916134   -0.54883173551884
H         1.93954371270636    0.45854030382746   -1.09608076454462
H         4.84601431831272    2.69482919762974   -0.34733471623584
H         4.91820599784227    0.10808473713633    1.26944904497405
H         4.29677473372186   -1.41921048775915   -3.47601151547602
H         5.89712483636174   -0.58136365354570   -3.89761396161837
H         4.34645805270487    0.07779490860083   -4.37575482067839
H         6.73640145174515   -0.02476597473286   -1.52444083073531
H         0.87829529100962   -0.65184547683081    3.33879615773070
H         0.16113283598281    0.72159678879070    2.57255544495960
H         1.95793893181124    0.68938966183409    2.90660924398514
