30
 energy: -57.475294086856 gnorm: 0.135417300670 xtb: 6.4.1 (79825abcba525fcdf90b791dcacef51065a7a4e7)
C         0.25489354361912    0.92291970641555   -0.17546712832762
C         1.66594946170696    0.35064348691944   -0.13254043735615
N         2.67835717100057    1.38231031748070    0.13305315208628
C         3.56670817478466    2.00927360843827   -0.81487141518406
C         4.11433703338661    0.99438579256670    0.18057944269853
S         4.60679302958794   -0.45946641034487   -0.89542272275579
O         3.73184085200098   -1.54421134446125   -1.28628835553942
O         5.93116971018970   -0.83070483251323   -0.43855326803790
C         4.82834276772020    0.57355722762760   -2.36272082354642
C         4.89650963506138   -0.32017196138347   -3.58271355461843
O         6.03361053458020    1.34537901989046   -2.16071331702331
C         3.70291862810445    1.59482055894297   -2.22675864649907
O         3.05607548778908    2.00008517393030   -3.17930220630829
S         1.87686752542387   -0.81260849729902    1.30723960363648
C         1.53063446777745    0.24768959608765    2.69130669846351
O         0.80000323254090   -1.76025353674416    1.09215394384418
O         3.22540253574389   -1.35913704667516    1.27304019356061
H        -0.10824730010313    1.32590191834667   -1.12258264412817
H         0.21219968567285    1.64898468056980    0.63976879716320
H        -0.44225045033810    0.11143113742469    0.06228049828991
H         1.84372447288342   -0.30708262317148   -0.97628743863810
H         3.70092701156937    3.08754963103442   -0.80240615318177
H         4.71588712746223    1.08974439299149    1.07510760770436
H         5.41857456669228   -1.26280039014849   -3.38848049072310
H         5.40706564206451    0.19060878295516   -4.40786536949656
H         3.88615253915241   -0.56448248623225   -3.92395472874878
H         6.64169726718789    0.57588019594470   -2.09734037838283
H         2.37731456921355    0.24573323542401    3.37881422663435
H         0.61875745168613   -0.09668077060174    3.18017891181728
H         1.41470810462911    1.28460737863209    2.36570775655710
