30
 energy: -57.466563409484 gnorm: 0.134022020986 xtb: 6.4.1 (79825abcba525fcdf90b791dcacef51065a7a4e7)
C         0.20725647990652    0.66383895022352    0.13043521480793
C         1.66778315139868    0.24835419804632    0.00937392938719
N         2.58401421553306    1.39737318525748    0.02040961110757
C         3.28877281679894    1.95100239020979   -1.10990957786228
C         4.03390141027330    1.08497726097721   -0.10213931239360
S         4.76029012215133   -0.36690654574713   -1.03935470529010
O         3.93104704234260   -1.54039744934160   -1.21331975470399
O         6.14492511285999   -0.43950808509994   -0.61741132779959
C         4.71764938552414    0.67960720325002   -2.51318528766013
C         4.92407727138127    0.07140243781791   -3.88404462968889
O         5.80055084075354    1.55358379509118   -2.12244796316109
C         3.33055464424281    1.31114832863435   -2.44129653689263
O         2.51351646806459    1.05388199262239   -3.31092135892622
S         1.97112672660802   -0.83692291653635    1.49287129018831
C         1.69004468009227    0.18721802664270    2.91831133208233
O         1.07743008086679   -1.97247834528277    1.36737291654351
O         3.39989248243876   -1.10793065360358    1.43293006177129
H        -0.03041517585003    1.28119306473766   -0.73771213197914
H         0.04287136003832    1.31143842075841    0.99483974204886
H        -0.36568928980376   -0.24835733969282    0.33212421644526
H         1.82287077640434   -0.28224253582241   -0.92364886733561
H         3.42825713002388    3.02739549390214   -1.05726696275921
H         4.57953256507404    1.42800902302291    0.76720080542970
H         5.69533768559210   -0.70289032969508   -3.95078828110717
H         5.24123336849024    0.90470596497312   -4.52236834448713
H         4.00052535284320   -0.40361584335342   -4.22808549872461
H         6.30205703594583    1.05802073921101   -1.43774157530078
H         0.68460656694408    0.04813393869344    3.31741963777999
H         1.92180892300457    1.21520712140975    2.63790013492274
H         2.45342527398751   -0.16425846688033    3.61714351772813
