30
 energy: -57.474238172599 gnorm: 0.131081628527 xtb: 6.4.1 (79825abcba525fcdf90b791dcacef51065a7a4e7)
C         0.43553207532856    1.40851180134021   -0.10241394736856
C         1.63289430226614    0.46687407561028   -0.11039626653585
N         2.86176378646342    1.22028398847357    0.17613261720786
C         3.86100988828658    1.83091946015359   -0.66615201390391
C         4.23581921239395    0.65040959074278    0.22082707036042
S         4.73017549254683   -0.62164238839875   -1.06427029958276
O         3.53891860956358   -1.40892295367836   -1.30109342728386
O         5.99009706828935   -1.31463159041334   -0.88292847107457
C         4.97222684124736    0.51251505920530   -2.45145589225062
C         5.15705563948809   -0.13712867808316   -3.80629247676559
O         6.13256161642372    1.24019566050133   -1.98962209894282
C         3.86333105714732    1.50230051760381   -2.10689978506699
O         3.07068648054394    1.90741558455026   -2.94211299610912
S         1.61102365294770   -0.74847018737527    1.30136440694407
C         1.20310711806921    0.29922653419924    2.67820382350111
O         0.46267855187017   -1.61556023510381    1.11864045177494
O         2.89985575680437   -1.37675277780522    1.55152939566815
H         0.21062586944597    1.75345164156609   -1.11321928647613
H         0.61393584769963    2.35854469685183    0.40671502629554
H        -0.43835914114057    1.01095841076757    0.42608658885934
H         1.62053394065375   -0.12227591549849   -1.02081712895334
H         3.99348877951946    2.90411142021460   -0.55864641798941
H         4.76232346423073    0.79862171056275    1.15461650623601
H         4.33178919441764   -0.79073349458235   -4.10722879948531
H         6.04979318380961   -0.76994996030819   -3.87698070492272
H         5.32073247374017    0.63918279400530   -4.55962177119847
H         6.77609661183608    0.54961056133149   -1.71600014383601
H         0.23284926524985    0.78510119125219    2.56837149820455
H         1.90587111694437    1.11945297448548    2.82806386369212
H         1.13551742097121   -0.35779728104123    3.54906742913651
