30
 energy: -57.470900897007 gnorm: 0.135148610569 xtb: 6.4.1 (79825abcba525fcdf90b791dcacef51065a7a4e7)
C         1.07406855724032    2.29812242195578   -0.13913325528515
C         1.97610888504546    1.07178625533138   -0.19246685290876
N         3.28001140192542    1.34604931850129    0.42758439167520
C         4.47589319660961    1.66284670035615   -0.31424980519103
C         4.33104022307827    0.29587372672356    0.34242361144379
S         4.16181575628684   -0.98325564381205   -1.01741856548845
O         2.82898474866054   -1.21626959829580   -1.53147581119867
O         5.01748567654765   -2.07291854354444   -0.59199522665734
C         5.10733458038870    0.10880887738234   -2.10488123968768
C         5.00139466935324   -0.33820998814044   -3.54735540370625
O         6.46651721499997   -0.08805290246329   -1.65426576586715
C         4.64352995344601    1.52469456001032   -1.77594808003471
O         4.29910278507161    2.32910169995529   -2.62699674364308
S         1.30100653867113   -0.31343140188807    0.85444148321201
C         1.19685857635778    0.31360433188310    2.51448078667216
O        -0.01616173868581   -0.73232048327926    0.41452179467599
O         2.39049930758108   -1.26870005690426    0.99183519043535
H         1.37147460359123    3.15550312224639   -0.74555036138080
H         0.99584202016138    2.76434417129972    0.84581375382370
H         0.13849935609396    1.88909993254997   -0.53720140222237
H         1.89009324153722    0.69375124650874   -1.20528839521742
H         5.04008028566848    2.53117337144022    0.01522071490153
H         4.77992884437920   -0.14114037707682    1.22483730441240
H         5.86078978517241   -0.87323902511098   -3.96450117653734
H         4.72887176735676    0.46490671007211   -4.24246313651153
H         4.09993412132294   -0.95806435366256   -3.53715349199045
H         6.53085909180770   -0.97723167433726   -1.24058076679047
H         0.68092910736612   -0.49863462013449    3.02792240050003
H         0.83232655755082    1.33135107205975    2.65736067794651
H         2.23323838201878    0.17823937630189    2.83423898870378
