30
 energy: -57.477385605709 gnorm: 0.121155186571 xtb: 6.4.1 (79825abcba525fcdf90b791dcacef51065a7a4e7)
C         0.36304179577321    1.39089605587453   -0.24050007432352
C         1.68522031185171    0.63441740499552   -0.24287612214063
N         2.79100809689560    1.46002389765011    0.26254730487063
C         3.81424312140897    1.95701503082777   -0.62447114227546
C         4.12052232563480    0.79295039582036    0.30931900614072
S         4.51126277172348   -0.62453697416536   -0.85344969742124
O         3.49580999194057   -1.45079033370263   -1.47082307863700
O         5.77054073175692   -1.17987722040027   -0.39920582483824
C         4.96237948998848    0.43973973305507   -2.24377147210124
C         5.04182544594368   -0.34343935580636   -3.53686841196548
O         6.17542936452893    1.16284426996071   -1.93584919235297
C         3.87046363991763    1.48229455975074   -2.02276641633736
O         2.99192055073216    1.77699239138124   -2.81731029433899
S         1.67479208697443   -0.72878534642718    1.02683947881419
C         1.63433192655082    0.20538268428589    2.53860803413685
O         0.48699261891120   -1.55492449006166    0.92409608518307
O         2.98455374581914   -1.36241488427103    0.98879038632331
H         0.25671925687045    1.95518910452293   -1.16870403972731
H         0.43769106586154    2.20407680001408    0.48528728127162
H        -0.44425888945743    0.68536334787618   -0.01348338674097
H         1.93061349949913    0.18237654958567   -1.19763152304553
H         4.22238240324048    2.90575771117376   -0.28659721919026
H         4.79664728185675    0.93269686567158    1.14266301088962
H         5.71896828643723    0.24691411309541   -4.16279731106486
H         4.05414096076569   -0.57481147479100   -3.95326512680440
H         5.58216944081003   -1.26403517353498   -3.29710531813746
H         6.89766380174332    0.58524000543347   -1.60318603648925
H         2.29235622766265    1.06999462576539    2.44380385304855
H         1.99709664450055   -0.52181712396010    3.26571798546639
H         0.62910728824232    0.57994462233715    2.74808085257863
