30
 energy: -57.477592109366 gnorm: 0.128557683685 xtb: 6.4.1 (79825abcba525fcdf90b791dcacef51065a7a4e7)
C         0.57900334452539    1.26403431330975   -0.32030834682084
C         1.73464545131800    0.29352369950427   -0.11289077110549
N         2.91072235632425    1.08375601669961    0.27726532269549
C         3.78117142739904    1.78061951885075   -0.63789102222444
C         4.31340532657568    0.59961117699823    0.16383426584495
S         4.70877867727113   -0.67846643975281   -1.14924506248131
O         3.75919266249151   -1.69439851148537   -1.55068902306229
O         6.02930492599417   -1.12226597007962   -0.74952808635849
C         5.00084756335392    0.57850300657358   -2.41570051652033
C         4.97521264144657   -0.05233215852879   -3.79162591235766
O         6.25144350698436    1.25783081887686   -2.16329249032375
C         3.86507845713371    1.54536753209918   -2.09438210621481
O         3.13990141353444    2.18381031171674   -2.84036720908607
S         1.47981302024595   -0.72912963861115    1.42328915332580
C         1.20046844916705    0.48685041052959    2.68942904714438
O         0.29519437707730   -1.56189814443438    1.33899826779795
O         2.76616233113299   -1.38524471661913    1.60557514652108
H         0.84517095126672    1.95997128153583   -1.11787983266538
H         0.42620181647678    1.80904401934375    0.61415344475881
H        -0.36386824446539    0.77266811061911   -0.58601457843060
H         1.83370137955801   -0.45219861485401   -0.89404551970255
H         3.84292157038642    2.83872132695709   -0.39818968954634
H         4.96399875234694    0.65284336403145    1.02698600712553
H         3.99200960158621   -0.47687643163677   -4.01944288527184
H         5.70617600298282   -0.86277019974820   -3.68521788504887
H         5.16070973022920    0.66988863026096   -4.59221481735784
H         6.83194368705461    0.62569623927719   -1.68439849593565
H         0.14923872198150    0.74963137064248    2.81352518110679
H         1.80287992523125    1.32970562563598    2.34913184933906
H         1.52361761392680    0.16863517075924    3.68389662272227
