30
 energy: -57.474818131304 gnorm: 0.136065925584 xtb: 6.4.1 (79825abcba525fcdf90b791dcacef51065a7a4e7)
C         0.67131617155796    1.80342403346675   -0.08870046514899
C         1.78183052238294    0.76435956677384   -0.17544423225613
N         3.07225791573444    1.24729705486996    0.33584267210751
C         4.23272551443850    1.66418525307711   -0.41270969357164
C         4.20971105337337    0.29165378564977    0.24792996553658
S         4.40438702824626   -0.89835481522788   -1.18732631992917
O         3.14689715106838   -1.31634330554123   -1.76955794126299
O         5.41111066357719   -1.84721343031151   -0.75524287089247
C         5.15964054629266    0.33382340420305   -2.27384129789855
C         5.21522061148174   -0.11069312912571   -3.71990379910598
O         6.50057092081196    0.49064863194494   -1.75760697011906
C         4.28215099335829    1.51910895795650   -1.88249204340412
O         3.89558003908572    2.29692298091841   -2.74013586973038
S         1.37654930854570   -0.45419261273851    1.17418012538384
C         1.14444970472407    0.59032548817788    2.59363875824705
O         0.14466471114783   -1.16691746959545    0.89415640472270
O         2.49818130291137   -1.35764213365530    1.38425240064935
H         0.44715801540863    2.20930653274341   -1.07678257356005
H         1.02149711735285    2.61713591963583    0.55071254637902
H        -0.13862078677072    1.30105470113619    0.45229358032357
H         1.85594083819953    0.28331089849273   -1.14457602752389
H         4.60272190556898    2.60798105987898   -0.02130020523946
H         4.60786893276051   -0.12403348900626    1.16434188720069
H         4.57347871222857   -0.96440651113115   -3.96108304092703
H         6.18988984723932   -0.51405884169748   -4.01949669846096
H         4.94200316347866    0.71791656341220   -4.37998927552399
H         6.79021931225690   -0.40625601876489   -1.47907528335489
H         1.32788653036359   -0.08896296188271    3.42697887818001
H         0.12891879750275    0.98448314050471    2.64306956392529
H         1.89963660340881    1.37997255686978    2.56531323213150
