30
 energy: -57.472311086938 gnorm: 0.128758268948 xtb: 6.4.1 (79825abcba525fcdf90b791dcacef51065a7a4e7)
C         1.14900780487489    2.08389769821658   -0.24405692561172
C         1.97122485929973    0.80640827462739   -0.13269491342239
N         3.24634860303892    1.18370136254654    0.49304857087220
C         4.32447268499925    1.71514574874749   -0.30446453271883
C         4.45797430511964    0.33552290462444    0.32770285522378
S         4.55322234221421   -0.92217272261127   -1.05905923731225
O         3.31176689907843   -1.54845751895723   -1.46098533626094
O         5.71496748544473   -1.76747445938334   -0.86844322064112
C         5.00408604745525    0.37151781132562   -2.23900523435515
C         4.78070193863761   -0.20181309153233   -3.62217986578574
O         6.37062655248536    0.68515699055046   -1.88774491204649
C         4.08677112575362    1.48615813768082   -1.74488551784658
O         3.31934714891386    2.08400031356722   -2.48219814926351
S         1.32377671505442   -0.47254155434840    1.05713971353016
C         0.93432608122676    0.31365512045337    2.60309381708888
O         0.10060335338000   -0.95239394400864    0.44271455354340
O         2.46773174869735   -1.35194422399962    1.24799974908500
H         1.28681317062863    2.50272589174138   -1.24249888983877
H         1.41653049659667    2.74182982486313    0.58609947516573
H         0.08164379366115    1.83534400571172   -0.24247407023045
H         1.96805080988351    0.11014703313574   -0.96415558394773
H         4.79139205708945    2.62734322489416    0.05710312572007
H         5.07916817086485    0.09339440067156    1.18012776308216
H         4.18004606476804   -1.07149218155263   -3.33635223836206
H         5.64805705314444   -0.39946078563881   -4.26332760038998
H         4.14290943291769    0.48390056631753   -4.18784065834831
H         6.89583861148642   -0.13779275113845   -2.00097061394202
H         1.92247001551645    0.56095376527665    2.99290475641024
H         0.28179799180095   -0.36687249166551    3.15099521774739
H         0.38742437988493    1.22335063884191    2.34231675987890
