30
 energy: -57.469012136908 gnorm: 0.131704879841 xtb: 6.4.1 (79825abcba525fcdf90b791dcacef51065a7a4e7)
C         0.55916875516572    1.43732932485058   -0.23478715943894
C         1.86117307508310    0.64730177791531   -0.20218591099317
N         2.93336386631483    1.56809316613008    0.20079753887824
C         3.90244197930121    2.08451605394640   -0.73462047613076
C         4.29311201246506    0.96353290288298    0.22015237416353
S         4.58813420522125   -0.59500567047457   -0.77879657464172
O         3.49707393740010   -1.52424528123016   -0.98150348671959
O         5.89452550972626   -1.07317733207815   -0.37233023134227
C         4.86562887214129    0.37469654983054   -2.27941649555689
C         4.62231864216905   -0.53559461511583   -3.46430086516533
O         6.22677362320479    0.82957688256488   -2.10750038454172
C         4.00033458893238    1.62308463119593   -2.13506612145598
O         3.37882012902397    2.18596600239660   -3.02212253812488
S         1.72501980620795   -0.73466458482674    1.03968343593554
C         0.88353090028409    0.01935947440425    2.41194260861510
O         0.86299626392486   -1.78512830897454    0.53236594010422
O         3.02083294450919   -1.11254520748736    1.58418712889911
H         0.30241829370310    1.87589262110682   -1.20072461328520
H         0.54254321512996    2.12928361204185    0.61050898909106
H        -0.29906854733674    0.77011195407220   -0.09587320089269
H         2.03704474221309    0.12700090596759   -1.13731841046582
H         4.03315977526397    3.15606836588827   -0.60997054928855
H         4.88520591713155    1.25412426595669    1.07812542268047
H         3.54533788683935   -0.47527854590895   -3.65218661723974
H         4.99661849732296   -1.53630415601965   -3.21748118067534
H         5.06519366538493   -0.14420404973211   -4.38496897731311
H         6.83132374450588    0.05807729530351   -2.03523987214056
H        -0.10843579252518    0.46892606527925    2.35337995727915
H         1.51465735937039    0.83040077315499    2.77663163726323
H         1.11931775432504   -0.77473755280818    3.12501101438661
