30
 energy: -57.465449885513 gnorm: 0.135723526718 xtb: 6.4.1 (79825abcba525fcdf90b791dcacef51065a7a4e7)
C         0.62959575882318    0.93510361050571   -0.54755256447863
C         1.80044618629337    0.06570030127626   -0.10747444596067
N         2.87489496022937    1.03763821927107    0.13898512204121
C         3.82285581095282    1.87034248163319   -0.56014668617532
C         4.31161645090852    0.65889410268234    0.22364086733166
S         4.79250335520352   -0.61513780383541   -1.06460223052381
O         3.82440220420002   -1.64782563384186   -1.36680222761037
O         6.18164873000844   -0.95872175293902   -0.83493626954003
C         4.81013027954347    0.54846478650490   -2.44840284598914
C         4.64950986703538   -0.06809765534329   -3.82165908192179
O         6.15217192486254    1.08109596676060   -2.38196076727919
C         4.00068066727869    1.77014058574264   -2.02373408285478
O         3.58399010235998    2.57764270062549   -2.83877641511880
S         1.46033695642848   -0.76767652452716    1.52360401321371
C         1.03924575634828    0.56830002143220    2.61795312146032
O         0.28583707176711   -1.59185565678012    1.31098123273535
O         2.68005369553081   -1.41354361076520    1.98572576465058
H         0.79074329386154    0.94872616049636   -1.62696890225741
H         0.64095470167566    1.97088160575042   -0.20022326035750
H        -0.34291430095040    0.50106253477907   -0.28894106615293
H         1.97915051157134   -0.76761387032383   -0.77812252105673
H         3.98415511144672    2.85068819897829   -0.11997167238054
H         5.00539514173871    0.74022945207485    1.05019522108184
H         5.52133876806444   -0.65056143983503   -4.13705872906703
H         4.60965076618671    0.78643618571958   -4.50767882590841
H         3.74768572346608   -0.67471132094044   -3.69640850299242
H         6.80820777158874    0.39318401159129   -2.13234475527471
H         0.40136950924153    0.25281420309691    3.44446398918272
H         0.55965192577454    1.29697040789678    1.96363216930469
H         1.91048138757309    1.06629316484842    3.05108518473712
