30
 energy: -57.475571407313 gnorm: 0.131909996471 xtb: 6.4.1 (79825abcba525fcdf90b791dcacef51065a7a4e7)
C         0.48849993509190    1.56048794952176   -0.15760881480703
C         1.70021623813414    0.63746025706686   -0.17121233928383
N         2.90272540836834    1.40972721139084    0.17145548954600
C         3.92481439051755    1.95172809113471   -0.69015963264051
C         4.23926838091392    0.75578240658848    0.19958733416526
S         4.69072031600908   -0.64025083185597   -0.96714407240363
O         3.57007973846129   -1.50923705291435   -1.25700002453602
O         5.94048195387553   -1.18682881365856   -0.47737921776680
C         5.00450809920381    0.47214970759657   -2.35757138256226
C         5.09844007003556   -0.29145133323639   -3.66136242604538
O         6.24149184384686    1.03135800438312   -1.86124125208047
C         3.88049411806050    1.46747596349513   -2.08561143415562
O         2.94078158266430    1.50023784908823   -2.86397619859718
S         1.56482125641454   -0.67643185270468    1.14254711061268
C         1.17544869601547    0.29815654330430    2.57723089732608
O         0.43373926943448   -1.50877486794423    0.77952051200711
O         2.84660802759171   -1.31769545066675    1.39595074280116
H         0.36506157022010    1.97383810267790   -1.16020462330525
H         0.70115066512686    2.34302523480104    0.57452354416970
H        -0.39150711672986    1.00354689848927    0.18364129080540
H         1.65902941174593    0.16658717162383   -1.14727523152291
H         4.29760958877642    2.92247876134322   -0.37469789036104
H         4.69462168697114    0.65906089404966    1.17653908573844
H         4.16505100080893   -0.69121033987223   -4.07100155072968
H         5.81234188586552   -1.12378773711771   -3.66184262347045
H         5.58056649430087    0.41447800596645   -4.34413069704049
H         6.88820295892062    0.29138458512540   -1.85037312818904
H         0.27240528542132    0.87098366088837    2.36294297250842
H         2.00020593969430    1.00282425808606    2.68825154246928
H         1.04757098807622   -0.31126843638346    3.47550733934363
