30
 energy: -57.477553154744 gnorm: 0.119973075996 xtb: 6.4.1 (79825abcba525fcdf90b791dcacef51065a7a4e7)
C         0.73024859749995    1.48910266071139   -0.62000823940526
C         1.84178108809230    0.51680218808465   -0.24644581803889
N         3.02997403526803    1.20850964672089    0.27276906311416
C         4.21179655948179    1.72799835305105   -0.37084454207008
C         4.26723519630467    0.38469967440936    0.34559965416157
S         4.57511290992584   -0.87204851665047   -1.01078344421054
O         3.37600068162641   -1.49022999042130   -1.53515960655785
O         5.84618685470145   -1.54639907554910   -0.83716430960974
C         4.99682864223108    0.37278502775128   -2.25244810333445
C         4.82621087264441   -0.07371584541498   -3.68886983664321
O         6.32401230042764    0.76806291297722   -1.83829205511268
C         4.18211156415592    1.59594832457258   -1.84238514136868
O         3.48714618611780    2.34518834796230   -2.50995327441562
S         1.37356220978766   -0.55281597231748    1.20520712043197
C         1.33298859896994    0.64023330486119    2.52230176549566
O         0.06835147591548   -1.15159578278362    1.00071422089692
O         2.49449560844135   -1.45094246404324    1.44033867761411
H         1.08048089323142    2.23826788013962   -1.33231614241435
H         0.31694524513254    2.04906200239470    0.22214887425937
H        -0.05679598048953    0.82326027870128   -0.99184440465100
H         2.03958915452085   -0.18152651460500   -1.05225322978225
H         4.55787349398773    2.62757128996094    0.13100057042120
H         4.78785385432214    0.25860134278378    1.28591439815096
H         4.07585137095106    0.46921225668683   -4.27283586712569
H         4.55038204661856   -1.13497043384425   -3.69872275425621
H         5.73574044017242    0.06955553602342   -4.27978769024595
H         6.86142051904942   -0.00844426236979   -1.56599982800840
H         0.34843366859332    1.10771057298695    2.56297381618701
H         2.12931584302982    1.33334557911513    2.24923587853623
H         1.55255062226566    0.17641185851154    3.48734801530590
