30
 energy: -57.466034420836 gnorm: 0.125611760080 xtb: 6.4.1 (79825abcba525fcdf90b791dcacef51065a7a4e7)
C         0.76468948955675    1.75444797298150   -0.30430717386742
C         1.86878311909520    0.73988134242627   -0.03587956891459
N         3.17139142137810    1.24522185457410    0.41984880980634
C         4.21806837422073    1.70216187233116   -0.46133485115258
C         4.38227253987753    0.38927120006658    0.29376258683258
S         4.64049209704026   -0.88750600306010   -1.05425167746433
O         3.41657480065792   -1.41027258965581   -1.62322476757528
O         5.74975883013409   -1.78770413765386   -0.80993245095143
C         5.17027322656439    0.38910853600573   -2.21991591465972
C         5.04068216565387   -0.17584755500101   -3.61841926424440
O         6.46940648454192    0.85395827146208   -1.78938856092913
C         4.20004017277641    1.53016974291977   -1.92893283849393
O         3.42161928467729    2.07063460542132   -2.69831138356749
S         1.10711820229265   -0.46314402886343    1.16545496636057
C         1.56392690318055    0.26385131564904    2.72191077382955
O        -0.31837182548843   -0.44032414394098    0.89827131788644
O         1.87391737297221   -1.68249987117476    0.95664861785072
H         1.19907389482183    2.51346726675762   -0.95737197501553
H         0.46543811750085    2.18692337595981    0.65330254315736
H         0.02464058860074    1.12573302838325   -0.81233524549295
H         2.06765276805215    0.02725612221449   -0.82880627561092
H         4.67959053441790    2.64069488550687   -0.16637329059189
H         5.07899646132557    0.24105061481323    1.10846672709183
H         4.21735069041964   -0.89760340275707   -3.61390162047124
H         5.88160235275915   -0.83642762584857   -3.86116837732144
H         4.98290490372459    0.53036698783916   -4.45201235470435
H         7.03487551897494    0.05376680416852   -1.71288738065946
H         2.64318048630208    0.11440141759267    2.77104379798118
H         1.02152689383111   -0.24006462312407    3.52252156522674
H         1.27158743135998    1.30879813201602    2.59047309058572
