30
 energy: -57.477343723656 gnorm: 0.127291815439 xtb: 6.4.1 (79825abcba525fcdf90b791dcacef51065a7a4e7)
C         0.79167985651097    2.18530094544058    0.23621741511423
C         1.77663256284259    1.07619417706505   -0.11044080985298
N         3.12929308698485    1.53334093265891    0.23765705848457
C         4.28412678916960    1.78245893860015   -0.59005714321884
C         4.21752222661998    0.51838144010197    0.25758015152152
S         4.09423537434662   -0.86490217938054   -1.00150943061960
O         2.76571982154553   -1.00060496878424   -1.55973878443771
O         4.96053130691741   -1.97852597444225   -0.67000580443710
C         5.11036170078807    0.14303254758660   -2.10638078770384
C         5.34206059758496   -0.59470814016044   -3.40785500764503
O         6.31255826325609    0.31170517119953   -1.32186866409789
C         4.40945505123171    1.49639757920875   -2.03442963634724
O         3.91418809998994    2.16258369382095   -2.92935499379866
S         1.52165593109398   -0.48499661902891    0.87357056493006
C         1.32981333887907    0.21215003894016    2.49743449305393
O         0.34139794518029   -1.13848213127329    0.34076906383835
O         2.70536210799196   -1.32294174266069    0.99644198695368
H         0.95495508520274    2.92142409418903   -0.55293253422061
H         0.92916271283413    2.70686260956394    1.18630931721674
H        -0.19136732007023    1.70161419868959    0.20951988254046
H         1.65220419144092    0.74483179153852   -1.13554233797306
H         4.77239236480247    2.70372235439015   -0.28392043847023
H         4.74963822679874    0.40537750629887    1.19311158234153
H         5.29942008891364   -1.67567757019419   -3.23899557090695
H         6.27952139617884   -0.36276691843776   -3.92728781734998
H         4.60784826352602   -0.26790991658716   -4.15020923751660
H         6.94654894616385   -0.43514676031936   -1.40049467883715
H         0.33367040930306    0.64321649165340    2.60429234262546
H         2.20131803524265    0.86736273471235    2.51424432592561
H         1.53016508371398   -0.59841804714058    3.20276465446714
