30
 energy: -57.468822769432 gnorm: 0.136623538945 xtb: 6.4.1 (79825abcba525fcdf90b791dcacef51065a7a4e7)
C         0.73221435388622    1.60181586229495   -0.47805674616208
C         1.86431576494393    0.62520091323214   -0.18652421442926
N         3.01114229292393    1.41176702103846    0.28881614710608
C         3.98299984639094    1.98549860630977   -0.60959156370258
C         4.38879369805638    0.84979565952789    0.32117543636452
S         4.53243672254247   -0.60199924648130   -0.85595583110287
O         3.37893500082518   -1.43207732631083   -1.13053366886314
O         5.74139765446854   -1.24531661680440   -0.38153251352808
C         4.90639470681934    0.44737845913792   -2.28008633648541
C         4.51973415170936   -0.27524635118429   -3.55291305154666
O         6.29139602703220    0.79623824760136   -2.05815280104817
C         3.91748218072743    1.58201213636260   -2.02968179980545
O         3.18618724685350    1.97253989114171   -2.92560617030433
S         1.72072863023785   -0.74212960679582    1.07061466293870
C         1.11313702819970    0.12086530268413    2.50093746970615
O         0.68146503119564   -1.68927129665325    0.71454801344492
O         3.05494036086892   -1.25837524162873    1.33853112637418
H         0.97070670835570    2.39637852436356   -1.18734181404849
H         0.43709289116048    2.09334353805423    0.45194679854544
H        -0.14268145577749    1.01551127495302   -0.78112708856523
H         1.99104384901047    0.07532264607601   -1.11264001210357
H         4.29520996644342    2.97472673474471   -0.28586053745370
H         4.97635598733145    0.78965595275504    1.22797762181442
H         5.41140484574899   -0.79140002769228   -3.92350094457509
H         4.20904830794258    0.49191697708727   -4.27220065542079
H         3.80022866040467   -1.08982928654025   -3.42752915235491
H         6.62369428206596    0.16760868887889   -1.37968630135372
H         1.44548734289950    1.14345699067343    2.68365892622920
H         1.48959399587827   -0.41168837163890    3.37487878257812
H         0.04011761888139    0.08429406521411    2.29613519365943
