30
 energy: -57.476379610161 gnorm: 0.130771404023 xtb: 6.4.1 (79825abcba525fcdf90b791dcacef51065a7a4e7)
C         0.37412332961501    1.53174405067453   -0.25281565781008
C         1.63634098604370    0.68491699370991   -0.15225647506139
N         2.82701826180122    1.47678613316655    0.18697268845512
C         3.84193899447152    2.00592427183701   -0.69095701580315
C         4.16580991496105    0.82762439598712    0.21873220910671
S         4.48505832289701   -0.66598662768564   -0.86809167946640
O         3.31240820295301   -1.37453031031006   -1.33483185907031
O         5.59005487877370   -1.45353511687481   -0.35890482059711
C         5.10077584973374    0.34075259935242   -2.23796535792708
C         5.02170342122600   -0.23847825400944   -3.63439652775282
O         6.43916160394495    0.76721165671110   -1.89731518156959
C         4.08590132658195    1.46339786124269   -2.04369403085145
O         3.48944565452791    1.84373510323698   -3.03846483749662
S         1.64089154601488   -0.67200171044028    1.12420704688396
C         1.33904292627682    0.25100602216860    2.61306406996821
O         0.55431495654131   -1.59138424582224    0.84489228772751
O         2.98298687483736   -1.22901898883287    1.20740324440920
H         0.49729594274146    2.24039826899662   -1.07374892851962
H         0.21432490278886    2.23345010959585    0.56917934812429
H        -0.48890941984993    0.88711768951556   -0.45450527649675
H         1.80300585528174    0.16990486106629   -1.09199151839582
H         4.15287994843762    3.03960560616756   -0.56578622837881
H         4.61769002086407    0.98693187001013    1.18907327840258
H         4.10196606553540   -0.81684112829262   -3.77006602968621
H         5.90980577970555   -0.86246143757219   -3.79047058365133
H         5.01779387590426    0.62704903441729   -4.30357651981258
H         6.95441239713739   -0.03054472940877   -1.64430250849851
H         2.29562971961029    0.67522965494657    2.92049477626983
H         1.05562349837705   -0.52054323979879    3.32964752448956
H         0.52204077651107    0.96959997005560    2.50922618703105
