30
 energy: -57.473583352064 gnorm: 0.128512371275 xtb: 6.4.1 (79825abcba525fcdf90b791dcacef51065a7a4e7)
C         0.68035132556255    1.25465617054497   -0.34520804749234
C         1.85477938340675    0.29978282126743   -0.17386861127586
N         3.00409934338126    1.10711009059765    0.25871906244034
C         3.90946814843735    1.82402197265789   -0.60566287992553
C         4.42800013740934    0.67445067588973    0.24898761777856
S         4.86604532969790   -0.65635337731883   -0.99642668188298
O         3.86015989408707   -1.63945684467253   -1.33802716911546
O         6.21551234774404   -1.03679979482611   -0.62938370357245
C         4.89921268760910    0.47336043443917   -2.40774963148263
C         4.74517833939733   -0.13298724441773   -3.78629841940037
O         6.14571255682070    1.18213110041395   -2.22590211080395
C         3.85209744525740    1.52442810915754   -2.05158897606884
O         2.99152318881574    1.96203525046316   -2.79851376156717
S         1.44166397062200   -0.72250706126850    1.32775291952207
C         1.12252219329277    0.52740618124141    2.55070693030081
O         0.13064495219993   -1.34123280260248    1.27940771591511
O         2.61602134246234   -1.55916629787178    1.52598463700701
H         0.67878087439466    1.69901337399692   -1.34212225830715
H         0.60158964636912    2.10570143859311    0.33532209726578
H        -0.28421431480733    0.74035007590078   -0.26678772724833
H         2.05000112127702   -0.26745738357361   -1.07733063001225
H         4.13815842556518    2.86482900251490   -0.39289367646796
H         5.04968771138926    0.77063453590427    1.12954972855074
H         4.43979267630890    0.69922047266390   -4.42894649042035
H         4.08252096295418   -0.99351219415389   -3.63522911358370
H         5.69327967859806   -0.44977654526155   -4.23093649935199
H         6.83624212875304    0.53175126501010   -1.96882425544006
H         0.72017748099063    0.04152361215779    3.44041164778907
H         0.37382721361031    1.26452094484371    2.25877485687101
H         2.05402653062460    1.06062082422297    2.75718669787467
