30
 energy: -57.476391961384 gnorm: 0.142270585200 xtb: 6.4.1 (79825abcba525fcdf90b791dcacef51065a7a4e7)
C         0.41618544667897    1.31438339095934   -0.13297565576582
C         1.73375707380106    0.55132054091031   -0.17946988255528
N         2.85056992905572    1.44381937134066    0.16114784139602
C         3.80980637295555    1.92412455849387   -0.80320904459922
C         4.20875104484522    0.83592523444450    0.18546827518820
S         4.62593897884305   -0.58935054085771   -0.95843854842843
O         3.45505120084946   -1.36159110231263   -1.31572718893958
O         5.73068349744926   -1.39342318431749   -0.47519119991375
C         5.05403262972128    0.45249829695075   -2.37281921253205
C         4.95870171266182   -0.33367552157651   -3.66302213728755
O         6.25579337297995    1.19121169083887   -2.05776376073664
C         3.92560328500894    1.46537033341232   -2.20316817409040
O         3.25061295501106    1.90688339792634   -3.11937722252787
S         1.67112812032898   -0.65297878077690    1.24051214631402
C         1.29178479402864    0.16192911876190    2.77406190220289
O         0.56607047720923   -1.52880518600344    0.90035721205874
O         2.96303606309712   -1.30030720627300    1.41472323639589
H         0.12351703817680    1.67737998676313   -1.11982539262373
H         0.41391640379239    2.12391935177486    0.60067896419077
H        -0.28063252491583    0.52458779944778    0.16986921254112
H         2.01324872083264   -0.12372683991534   -0.98091362807367
H         4.17346916175730    2.94691042375370   -0.75313353599473
H         4.69401865984565    0.94273625248140    1.14684385970601
H         5.90997436043201   -0.35747301525391   -4.20463146167431
H         4.26857114924858    0.21123463360045   -4.31818063072131
H         4.49627508622237   -1.31186216925743   -3.50095076158209
H         6.86482110266354    0.53916201073464   -1.64565881895636
H         1.44841617979781   -0.51018922370307    3.61860980841004
H         0.25636739640318    0.50375267983234    2.78725845693683
H         1.90738488510655    1.06156740853519    2.85368323209650
