30
 energy: -57.467726285977 gnorm: 0.135077935777 xtb: 6.4.1 (79825abcba525fcdf90b791dcacef51065a7a4e7)
C         1.19212739187253    2.05837593907684   -0.32673443446375
C         2.02113007706923    0.78310704866992   -0.24387660664908
N         3.26596468497275    1.16279791532018    0.43881451570037
C         4.46020807286126    1.65438898416250   -0.20378395916591
C         4.45531957817458    0.26831038123959    0.42833921361421
S         4.46943556962334   -0.98760359786058   -0.96322839735035
O         3.16955948733009   -1.56533044408096   -1.23070308953735
O         5.56267749364100   -1.92557407915344   -0.80336989377210
C         4.90215877461510    0.26496693055486   -2.19327048331593
C         4.56805555754585   -0.28694545253048   -3.56277718445560
O         6.34503827950302    0.33726265191161   -2.14790129195241
C         4.45320242298813    1.63039477977913   -1.68132419110081
O         3.92091850628902    2.53848297165098   -2.29941351647335
S         1.33856735050793   -0.45548153581301    0.96881240738448
C         0.67882865309625    0.67192516971777    2.17440357789078
O         0.20392246473829   -1.12225193880878    0.35895350687351
O         2.50903865001602   -1.15929461512522    1.47185695205964
H         1.46560682434865    2.60115566847611   -1.23331752232603
H         1.32708138952818    2.60044432026230    0.61217557805817
H         0.20028933740364    1.61922817563436   -0.48311183737740
H         2.13403831850949    0.23342924452454   -1.17189744511935
H         4.90888311285090    2.52289703223916    0.27080384683632
H         4.72412507585752   -0.00171679224073    1.44123861373357
H         4.36296740738201    0.41089817542892   -4.38117791350490
H         3.74076158249962   -0.99418112604551   -3.42920209575773
H         5.50688911189885   -0.78778427021936   -3.81715224051136
H         6.72337849244829   -0.45129294415861   -1.69962370044907
H        -0.35715882488016    0.93025951323040    1.95184811197202
H         1.35608359188747    1.51898000268926    2.28811611409254
H         0.70175336508610    0.24191194310109    3.17900059316426
