30
 energy: -57.473074979589 gnorm: 0.144130824642 xtb: 6.4.1 (79825abcba525fcdf90b791dcacef51065a7a4e7)
C         0.94427077775878    1.68860091420298   -0.73901097358117
C         1.76070119685591    0.51788339282957   -0.20676720370652
N         3.03972724458706    0.97829833924319    0.35176320873536
C         4.17140867012369    1.45524988124674   -0.40495724327387
C         4.22345711477922    0.08183311959573    0.25218385797179
S         4.60870611409956   -0.99428609924629   -1.23359218510077
O         3.37303460051146   -1.52736190844858   -1.76644762940652
O         5.67756665876284   -1.88615704977410   -0.83032478229719
C         5.33580945114989    0.30928460624954   -2.25398916122923
C         5.56340133364834    0.00557068571705   -3.71950635339364
O         6.56952512461487    0.69102197373393   -1.60482930282601
C         4.31028297171390    1.37317119744400   -1.87387765527249
O         3.58350466704759    1.99488399712495   -2.63233081083489
S         1.01485055537045   -0.21990011916041    1.33271014027346
C         1.44018950947014    0.66507538837719    2.81448482802000
O        -0.39589765016652   -0.04325776329504    1.04545303345668
O         1.46367036977830   -1.59731670381291    1.47304564916827
H         1.37900548771156    1.94663773791061   -1.70633535742029
H         1.06704468841552    2.59386126258161   -0.13981735158519
H        -0.11959999896067    1.43073448940983   -0.79127241081125
H         1.75543131840471   -0.26100084174305   -0.96137184629990
H         4.63532821713991    2.32563749035827    0.05117136013070
H         4.67025358404421   -0.25538231179846    1.17835612540343
H         5.23402653423544   -1.01464176550990   -3.94200450234649
H         6.60740923563029    0.20758085514934   -3.98723628172836
H         4.89658162073296    0.72807069392970   -4.19940201008848
H         7.05716792176820   -0.15065146604785   -1.46445705906353
H         1.42473978849062    1.74530894003834    2.66483723275007
H         2.44178293253141    0.28389519937378    3.01602629111803
H         0.71688023654059    0.40745203043212    3.59237041185627
