30
 energy: -57.465158374040 gnorm: 0.130602833055 xtb: 6.4.1 (79825abcba525fcdf90b791dcacef51065a7a4e7)
C         0.57702573269887    1.16276566453545   -0.47533832462675
C         1.79790954020166    0.31531460113019   -0.14113622689392
N         2.89039939611816    1.22604610467744    0.22883617239764
C         3.80943162958149    1.87849505875904   -0.67144265031088
C         4.28422384196625    0.70689101873010    0.17869487171897
S         4.78784566701325   -0.60511638826839   -1.06186194772746
O         3.79642558603097   -1.63175620046656   -1.30287184037937
O         6.13442571935637   -1.07511780504809   -0.80429234719035
C         5.01222312608243    0.55129944310468   -2.43355543327550
C         4.93020636123395   -0.21977802945945   -3.73374527424489
O         6.20730328278942    1.20946108031269   -1.95627880581195
C         3.94625611272316    1.59558414263876   -2.11539223383135
O         3.24982964318551    2.17911043487052   -2.93054374530552
S         1.32880904593614   -0.68638857358064    1.35791136729543
C         1.48931320716637    0.27424696331329    2.84491132577746
O        -0.04569460842279   -1.08362263400602    1.11942767627395
O         2.35782921425849   -1.70517953283115    1.50485421752186
H         0.34891585096301    1.24609853153936   -1.53944134767553
H         0.68723736393955    2.18985775618501   -0.11961658800570
H        -0.30380447322953    0.63432017309611   -0.09332931127743
H         2.16515827577034   -0.46621240214278   -0.79723114003342
H         4.05142049881340    2.90406639576351   -0.40593570357643
H         5.03186305594214    0.80597050518290    0.95481026728290
H         4.55732533371884   -1.21892456599005   -3.48576832091513
H         5.95409712523395   -0.24510021658489   -4.12546764247287
H         4.46374116496014    0.35093791538168   -4.54223037908285
H         6.82867773371022    0.64443825240823   -1.44583092451140
H         2.36636716029211    0.90202539983797    2.68302179211083
H         1.58423638985352   -0.46420010907795    3.64164979848808
H         0.60019694161600    0.90730190224192    2.90292676702993
