30
 energy: -57.470186829300 gnorm: 0.141561791931 xtb: 6.4.1 (79825abcba525fcdf90b791dcacef51065a7a4e7)
C         1.11967744362616    2.46064849925721   -0.06153361356358
C         1.99829913814386    1.21790011180245   -0.12495278785825
N         3.34081797678499    1.45531323951699    0.42379461040353
C         4.54370222242565    1.66573044208821   -0.34406339949457
C         4.34993349451513    0.36149177552486    0.41897830551400
S         4.22379525452732   -1.00989766640385   -0.85277629046537
O         2.88156666728550   -1.26127321445955   -1.33259042350301
O         4.95922056381135   -2.20301069611156   -0.48378823916346
C         5.07105111790117   -0.00169490555882   -2.09167520855996
C         4.67333799442600   -0.30322726458002   -3.52089994720471
O         6.48460512671383   -0.15273411550194   -1.83045017030312
C         4.63392752656398    1.43079429624576   -1.80022765681798
O         4.20707371793858    2.20159498553575   -2.64500388254473
S         1.50459097426103   -0.30554268093459    0.82687834237945
C         0.69968054857986    0.31461520762398    2.28539625414282
O         0.49869966566459   -0.93332749522918   -0.00858474394645
O         2.58427340082754   -1.20628604141167    1.20285305408529
H         1.64092053549725    3.07416355245461   -0.79855372816587
H         1.06481397024664    2.81751693481909    0.96960053870896
H         0.08474694588336    2.25066913968340   -0.35457781939279
H         2.07893260657210    0.93147127991131   -1.16782065813092
H         5.17402666181334    2.47560683442111    0.01320462998975
H         4.72713041783158    0.19293000061462    1.41920112459720
H         3.61698833822502   -0.59051379232753   -3.54135687564508
H         5.25316694997002   -1.10231960300262   -3.99806840813973
H         4.72459664192846    0.62048220794128   -4.10492733913344
H         6.50390590067237   -1.11575509241012   -1.63517569157990
H        -0.36023907545904    0.43039588583227    2.05582524534370
H         1.11079657648636    1.24983197315676    2.66678830457348
H         0.85717285166566   -0.51001958860022    2.98527174867724
