30
 energy: -57.475043782111 gnorm: 0.119511721659 xtb: 6.4.1 (79825abcba525fcdf90b791dcacef51065a7a4e7)
C         1.06246509382575    1.82879145892434   -0.57782799546377
C         1.95836852683273    0.64946167450776   -0.22151362061566
N         3.23726237090613    0.99297166265394    0.41588494528617
C         4.35300460881903    1.60172898981047   -0.26627751253381
C         4.50473571323895    0.21598692753281    0.34814424695424
S         4.67645118081354   -1.04855041982497   -1.02496852351397
O         3.45410332804474   -1.71724956699271   -1.41700937520540
O         5.89324406812414   -1.79429438997531   -0.77237741520365
C         5.10151818827917    0.29813727216764   -2.15409922096172
C         4.81278567580418   -0.20942842443398   -3.55080657977049
O         6.49032393397330    0.61871122553919   -1.91402164483733
C         4.27772130311514    1.51365928292844   -1.73948018138831
O         3.73218160982833    2.32833266600082   -2.46658297337646
S         1.03734215399514   -0.30055751533366    1.08989103443446
C         1.14395989776866    0.64643824361940    2.59041853736408
O        -0.34709531952257   -0.38438057920241    0.66534864413489
O         1.80962346991772   -1.53274938836289    1.15067330586888
H         1.50845164076342    2.36519407723923   -1.41726945184042
H         0.91204896021263    2.49057015871884    0.27834176540702
H         0.07022970706476    1.47321919422820   -0.87796908602499
H         2.00837352009364   -0.07119047640786   -1.03038729029232
H         4.61124191798296    2.56825933305801    0.15796497999211
H         5.05777457482190    0.11519981717763    1.27287461238130
H         3.75235407168904   -0.01484358502053   -3.74172065543709
H         4.91002131491235   -1.30150951489320   -3.56935503996478
H         5.48163357929839    0.22983867885932   -4.29689070839489
H         6.97189197902680   -0.23800682265382   -1.90766179859675
H         0.99436721247670    1.71014364122581    2.40149929858204
H         2.20067578249658    0.51042495898735    2.82270846060740
H         0.43445427066018    0.28861268630401    3.34089486371188
