30
 energy: -57.474302029883 gnorm: 0.136941842406 xtb: 6.4.1 (79825abcba525fcdf90b791dcacef51065a7a4e7)
C         0.37362749919690    1.42534005735502   -0.13359270666088
C         1.63314943855398    0.57921155445017   -0.26810152012860
N         2.78945327049978    1.42945366281466    0.04796110620434
C         3.90298573790996    1.94163405315460   -0.71264927658442
C         4.10407127709017    0.75321968911499    0.21904433254256
S         4.55920265359278   -0.67860606319560   -0.90198655321355
O         3.42608169390852   -1.49999996026844   -1.27122602534320
O         5.72127106576338   -1.31480689412160   -0.31430742000217
C         4.97938052714509    0.41992595769894   -2.27525411426033
C         4.87875571906667   -0.27273474449824   -3.61759410374467
O         6.35273516727740    0.66222889856450   -1.89529014238777
C         4.10190908480645    1.66185709477840   -2.14997475210236
O         3.63918127768966    2.30171360604629   -3.08080841826119
S         1.67097193021501   -0.66892771249372    1.11440562423551
C         1.24217567857225    0.31285969869874    2.53284785212557
O         0.56792732858891   -1.57633945467085    0.86176713890758
O         2.99627177753606   -1.24519689739583    1.28733298013201
H         0.25294393010208    2.08498587143952   -0.99475274420741
H         0.32073819399668    1.91405308089832    0.84209424575730
H        -0.42750705823168    0.68281748123727   -0.22242413935177
H         1.72231343829263    0.01199187513101   -1.18811685189558
H         4.27385428370198    2.92606538148169   -0.44025118211440
H         4.59463835700007    0.85575664006347    1.17819317345759
H         3.95125956854348    0.05434295961809   -4.09884008772764
H         4.81585574689147   -1.31945925305385   -3.29688969213864
H         5.79727182571794   -0.01158655662999   -4.15152707582889
H         6.74604832328011   -0.16639061923096   -1.54229085109331
H         1.83533545799376    1.22518090113065    2.60612214810204
H         1.59243064685520   -0.30869536496770    3.35752805861420
H         0.18378016245187    0.56851078579845    2.62820787253733
