30
 energy: -57.472801381507 gnorm: 0.136820551288 xtb: 6.4.1 (79825abcba525fcdf90b791dcacef51065a7a4e7)
C         0.93453918077870    2.22015801406604    0.14552395001628
C         1.74165774345365    0.94396462300161   -0.05525367324218
N         3.08354238976392    1.43238379959312    0.29207588769021
C         4.13871620785221    1.84905594072489   -0.59888111996195
C         4.29193825887907    0.56756582581890    0.21051591692780
S         4.27786685466192   -0.80335431759885   -1.06790481637796
O         3.02855282051416   -1.07795758809929   -1.74524988139469
O         5.16765547011721   -1.90326176135475   -0.75326040869451
C         5.16293548347350    0.33520452707966   -2.15855742526306
C         5.38504679962156   -0.32247276140974   -3.50388563587372
O         6.38716097439573    0.69532668020863   -1.47975680388274
C         4.13273130895425    1.45242600877296   -2.02239747700774
O         3.32312158142694    1.72243749149423   -2.89510054467468
S         1.50299114832503   -0.57498736987469    0.99661671583645
C         1.29855721598280    0.03466867524048    2.65380631618229
O         0.23968414052019   -1.15210439571733    0.57838112707321
O         2.65514606427510   -1.46433535774998    0.99362806787024
H         1.15396321951395    2.83866807166666   -0.72659538326312
H         1.20260068843361    2.72790748685322    1.07500564731300
H        -0.12562432991419    1.94647043090090    0.09866442882632
H         1.60405838402855    0.45026173568560   -1.01099449422276
H         4.75828852281455    2.72414519449710   -0.42225144470538
H         4.91342739095270    0.48723486461022    1.09280524453414
H         4.34031141256128   -0.34510945174230   -3.83075286008698
H         5.70285213537527   -1.37023053203195   -3.44352550318915
H         6.02276586856504    0.28083880425162   -4.15679005215476
H         6.84159016571228   -0.16860805035715   -1.36562996579769
H         2.09682353133186    0.73090030738409    2.91374867013782
H         1.34294934052712   -0.84976046613695    3.29014043939189
H         0.37004708687037    0.55298978307381    2.90652008752580
