30
 energy: -57.468690318661 gnorm: 0.135832800687 xtb: 6.4.1 (79825abcba525fcdf90b791dcacef51065a7a4e7)
C         1.07092688852503    1.82161526419513   -0.34504752012067
C         1.93230178012999    0.58494930607764   -0.12343484252335
N         3.22655646110699    0.96646511967843    0.45897077308259
C         4.24309032623589    1.62141582065686   -0.32748324788550
C         4.55592323463690    0.30345642442160    0.36960760166146
S         4.71041310475090   -0.90325764172495   -1.05655993610268
O         3.46340965967984   -1.54295396265441   -1.41816725948837
O         5.88805213701911   -1.72328182906413   -0.85346415519565
C         5.00046702593160    0.35099539126733   -2.32616770660634
C         4.58807742811864   -0.09838675897590   -3.71172584434192
O         6.33051041347878    0.91680930937535   -2.32111811910563
C         4.27559510124198    1.58811693859636   -1.80450213955730
O         3.67197741183870    2.42288303066196   -2.45932726904329
S         1.20929349525274   -0.55527218244993    1.16021703715715
C         0.94972113411472    0.47738166185790    2.58359306889039
O        -0.13746194163381   -0.90624264754913    0.75156168910104
O         2.14935456628475   -1.57225522232014    1.60792275392309
H         1.44982980889746    2.50189198715005   -1.10986769016004
H         0.92250047574702    2.38694609693576    0.57797651941296
H         0.15445762204644    1.41837455901145   -0.79061277512486
H         2.04980562469404    0.00474896519017   -1.03210255100607
H         4.76974192951964    2.44204374881234    0.15215945348521
H         5.22884392880321    0.26034134390030    1.21604438627966
H         4.62916342769139    0.71532836013643   -4.44316707646588
H         3.56455242587360   -0.48791121383869   -3.65598365732769
H         5.19103347993434   -0.92503051746249   -4.09909998975111
H         6.98381838699942    0.20511188091621   -2.14059248143296
H         0.24288156466681    0.01850908502914    3.27594514984108
H         0.61331997986017    1.40917882777217    2.12785741313349
H         1.96359672494384    0.52541322858829    2.98905741422441
