30
 energy: -57.473174643621 gnorm: 0.133465625852 xtb: 6.4.1 (79825abcba525fcdf90b791dcacef51065a7a4e7)
C         0.41881233918936    1.19680760516856   -0.46860868818074
C         1.68735647186880    0.41527931826035   -0.15170036392038
N         2.84971948715573    1.21110773739394    0.26712552546177
C         3.81217842692782    1.86538016972896   -0.58517245839423
C         4.21935876940342    0.63173901104401    0.21053523999995
S         4.69252157848700   -0.66827827123357   -1.05439631644155
O         3.53666880380808   -1.48884519167449   -1.34707895017887
O         5.94768417388389   -1.27795232484852   -0.66275150263132
C         4.98048263710676    0.58775181330155   -2.32272304692403
C         5.08138217690002    0.03494801974262   -3.72842859808002
O         6.24311085829041    1.17851327669238   -1.94067963257272
C         3.78793110186250    1.48796017315877   -2.01370889367737
O         2.95327209114771    1.81904132413508   -2.84057908113162
S         1.55598493244801   -0.71880158772477    1.32044439865153
C         1.46564789393141    0.52173513383567    2.59034949803099
O         0.35001417384985   -1.52219799609798    1.25626958006789
O         2.87234467973125   -1.33949766984530    1.33896783273383
H         0.60326780743637    1.82206636457918   -1.34400654017002
H         0.12063847001295    1.81571740195599    0.38088865521869
H        -0.35264627985272    0.41935087424171   -0.50681877179901
H         1.92330416750877   -0.32002730330969   -0.91312629755180
H         4.16758546394844    2.79241852446340   -0.14343164526765
H         4.81724677301613    0.60942086570533    1.11229365076976
H         4.10384832979571   -0.42442811249385   -3.90794956561183
H         5.85212036224503   -0.74235343553596   -3.79327472437077
H         5.09109042793041    0.86818073795788   -4.43735992056483
H         6.99069167782134    0.55788408782589   -2.08851863916412
H         0.49253589478097    1.01076650520993    2.64899229641995
H         2.20815301294380    1.26509943997771    2.29845510002984
H         1.77259580732768   -0.00142895345695    3.49959885696340
