30
 energy: -57.470502870587 gnorm: 0.143987078433 xtb: 6.4.1 (79825abcba525fcdf90b791dcacef51065a7a4e7)
C         0.98065356202912    2.35472958936934   -0.04190245771082
C         1.91787047780995    1.15802485702424   -0.14162112274439
N         3.26067845113596    1.43119347085135    0.38950166920889
C         4.47258482566487    1.59091192321830   -0.37638632831695
C         4.20738729484583    0.28332972348181    0.35894770350168
S         4.19421754601170   -1.01775525922820   -0.99049078544298
O         2.94174381555978   -1.10280303147015   -1.71095262480593
O         4.99731501503163   -2.18304814792909   -0.67800367978548
C         5.12818346179756    0.02022165391709   -2.13918458034099
C         5.19020852367250   -0.41393335893436   -3.58813011609944
O         6.43824738171278    0.10441875981835   -1.53434602790140
C         4.54458360921041    1.39781475420377   -1.83969758195797
O         4.22827506900725    2.14299925504419   -2.75328044904033
S         1.34309329210776   -0.24604329399336    0.93950421354075
C         1.19486976533182    0.17974154067615    2.65894835664772
O        -0.00813539241196   -0.49817731159970    0.47632050665505
O         2.30605724918893   -1.31638708745639    0.72625715094010
H         1.10460186052709    3.10252513239604   -0.82722556356408
H         1.16747495096523    2.89000753075881    0.89200225994035
H         0.01247893239033    1.85284399322782   -0.15051237127552
H         1.84191692676291    0.70387862571427   -1.12350647785661
H         5.14846245694813    2.37928580353090   -0.05622184288504
H         4.55347946925133    0.07561089582643    1.36304404819552
H         6.06995620840513   -0.90796965779055   -4.01333451058498
H         4.99276674426485    0.43093473155004   -4.25869299613373
H         4.33733332987285   -1.07931995215476   -3.75189585768658
H         6.61942604544032   -0.76170538883159   -1.10665771301209
H         0.75746894059092   -0.70941960640160    3.11459141412465
H         0.69660964308232    1.14432800804138    2.76100951664001
H         2.19327898013124    0.19369367194134    3.10351157842639
