30
 energy: -57.475671917819 gnorm: 0.141577276721 xtb: 6.4.1 (79825abcba525fcdf90b791dcacef51065a7a4e7)
C         0.68808293150092    1.94214276140504    0.04742746547204
C         1.77979836879748    0.89347825241847   -0.12251890727439
N         3.06589196896330    1.47117549439214    0.29229996779662
C         4.16903770518669    1.74282249859452   -0.59656966485084
C         4.17750629317111    0.48224894001037    0.25882500989321
S         4.25714224163465   -0.82020233312033   -1.08700500371842
O         2.96393160661490   -1.19393755031940   -1.61890451294077
O         5.22490361831353   -1.80750682776532   -0.65204636492745
C         5.16853537883104    0.27216305387515   -2.20292894723748
C         5.27108572660747   -0.15639472892382   -3.65123916933722
O         6.42235358792055    0.40006773297792   -1.49528031106267
C         4.26587194506802    1.49273215759972   -2.04978261070757
O         3.71963580756626    2.13441384741792   -2.93287685983944
S         1.47838758129204   -0.52075052805738    1.05209451670546
C         1.38870923904815    0.04730302278443    2.73406480660212
O         0.21518197003300   -1.02248040952777    0.54562795702267
O         2.69181215509394   -1.32386254508412    1.08405729257397
H         0.45906596181642    2.48601759871349   -0.87074741861372
H         1.10720858647757    2.61653077399149    0.79785215656807
H        -0.23757462374465    1.47342501060738    0.40028598610169
H         1.85723242588307    0.58711338311519   -1.15994898077564
H         4.67645559004818    2.64122235644608   -0.25560937921038
H         4.71939799722036    0.38064564547517    1.19004271849461
H         4.78749547168584    0.50667925395897   -4.37601498955632
H         4.89726050914511   -1.18622057837004   -3.69764336747875
H         6.31859083671153   -0.25857737491721   -3.94998050254796
H         6.64068260378141   -0.54334802034427   -1.32731245389890
H         1.71701320953539   -0.77095669653852    3.37609686017915
H         0.39203586950089    0.39354848526867    3.00949711668076
H         2.10138902850156    0.87097588687362    2.82518347293298
