30
 energy: -57.470975297081 gnorm: 0.141789776901 xtb: 6.4.1 (79825abcba525fcdf90b791dcacef51065a7a4e7)
C         0.37866447341059    1.28722157754771   -0.06682459108529
C         1.70853361937826    0.55566104846001   -0.19601001384372
N         2.85529735564742    1.39092268120968    0.18754763923269
C         3.81582132158899    1.92532634450593   -0.74659274997583
C         4.22237289076659    0.80292965982330    0.19985269149191
S         4.51759813093079   -0.65468866798153   -0.94127415856600
O         3.36856565851732   -1.40079363916325   -1.40822233400992
O         5.61423980988820   -1.32163566829657   -0.26816199096637
C         4.97672379565207    0.44232346114563   -2.30324106325464
C         5.01805011197306   -0.15757228028366   -3.69255675103143
O         6.18584643246878    1.14746919636923   -1.94271611033116
C         3.84603484770501    1.45485215468107   -2.14712519401198
O         3.04501102066060    1.87102528129438   -2.96879757657986
S         1.75880675041928   -0.74393667177428    1.13782902378287
C         1.57048949718503    0.29094057389636    2.57076893789097
O         0.58138777920243   -1.59081801317204    1.11767398952279
O         3.11121681508480   -1.27818514579488    1.07477894358897
H         0.11002352986178    1.62924168062875   -1.06789802563600
H         0.41908420708799    2.18838698228794    0.54951125776752
H        -0.34937561676170    0.49567279647103    0.14402020874545
H         1.94571704861498   -0.02551197803885   -1.08037337775479
H         3.95878297758662    2.98666590047359   -0.56228477574747
H         4.78754291464266    0.89334057271185    1.11829973348264
H         3.97487892962367   -0.38018490676234   -3.93966833298622
H         5.71663398944948   -0.99153515540143   -3.83013004883222
H         5.43455082452676    0.51802107252709   -4.44558756797348
H         6.76419923386900    0.57996561644986   -1.38651311882335
H         0.62917641760832    0.84152108646189    2.55264689648482
H         2.45870406544323    0.91669673827895    2.66356326173874
H         1.43380576601951   -0.32857829088384    3.46080602385454
