30
 energy: -57.471264145207 gnorm: 0.142000899538 xtb: 6.4.1 (79825abcba525fcdf90b791dcacef51065a7a4e7)
C         1.30590332244005    2.20983024494858   -0.33380152990164
C         2.01530721245161    0.86310403487914   -0.27467264401807
N         3.25698290202710    1.17642729976969    0.44637921459359
C         4.51955586090260    1.42876334499712   -0.20404179641838
C         4.27343990916535    0.08993106518371    0.47989687447764
S         4.28929249923945   -1.03420724104256   -1.02011697510145
O         2.99890043199759   -1.30220649966029   -1.61849272889151
O         5.20186339735752   -2.13804024242731   -0.79810725351325
C         5.12604515425389    0.09637239918517   -2.15625979545882
C         4.89959715563494   -0.13110052180559   -3.63570503727029
O         6.53116586188263    0.03426128590136   -1.82314673785984
C         4.64535087436244    1.46252332547591   -1.67604249705163
O         4.15374177451244    2.37026514994225   -2.32743329028854
S         1.23081344219580   -0.27702200734883    0.97244014670828
C         0.95956927889102    0.71150210882114    2.42467903049017
O        -0.10582993259931   -0.64645473976506    0.54719479164375
O         2.13398284075146   -1.40378665791575    1.15436372492016
H         1.58643164583100    2.85603835735990   -1.16747572794299
H         1.64876653276870    2.68466304355517    0.58846814739693
H         0.21704246268474    2.13819129263440   -0.23232607740021
H         1.95909396329614    0.25341995221045   -1.16979385046833
H         5.14249479441390    2.24664329063520    0.14790812980840
H         4.53942525603065   -0.31683192884285    1.44681573183148
H         5.62051511827789   -0.86058081996014   -4.01906181151690
H         5.21379658696337    0.76903705701266   -4.17743465546059
H         3.86664017358848   -0.46140011491215   -3.78012347354207
H         6.66819034501627   -0.89472485754181   -1.53310694751345
H         1.89884176520239    1.24383708904256    2.57935381230199
H         0.79593559868421    0.02081544107351    3.25249702294138
H         0.12208253240638    1.35904459351962    2.15272910785159
