30
 energy: -57.469659679027 gnorm: 0.138323490355 xtb: 6.4.1 (79825abcba525fcdf90b791dcacef51065a7a4e7)
C         1.02400072216023    1.89767839929453   -0.30043028521247
C         1.84974651772782    0.63255789827930   -0.10540306140022
N         3.15813942145568    1.03448059286791    0.42977137677837
C         4.17851422568669    1.65157196912035   -0.38192150152541
C         4.44494584054000    0.30309102581512    0.27491243672221
S         4.67086593735923   -0.87977606519933   -1.16166862810816
O         3.50008918889961   -1.58289436616910   -1.64114262209500
O         5.80371221333191   -1.76076459202833   -0.95908580609262
C         5.09012362463630    0.47903714402743   -2.27837606021145
C         5.12670997112162   -0.01472525610176   -3.70898466382578
O         6.39236401356447    0.82912481093321   -1.75799649181651
C         4.06924899000819    1.52918623577418   -1.85053744272732
O         3.21004521174117    1.85353959555006   -2.65461985188904
S         1.11890469789245   -0.47961589119506    1.19826403846901
C         1.43492001272042    0.53196134138927    2.62535791144704
O        -0.30041625984912   -0.72342050015652    1.02500990067590
O         1.84516226270860   -1.73936455989038    1.26145397185274
H         1.14213683651633    2.46239629242611   -1.22694595573316
H         1.34804831974580    2.61486843804636    0.45735222015033
H         0.00317233392052    1.60839217966464   -0.02607602383337
H         2.02508172733285    0.10168828801574   -1.03467785630996
H         4.57514216859130    2.57548331334467    0.03029594191922
H         5.02903013310219    0.01797068523240    1.14018012318382
H         4.43597923108751    0.49408989819032   -4.38929695588596
H         4.82349574554027   -1.06812080423470   -3.67967808285199
H         6.10510472444785    0.11375624594359   -4.18141544549825
H         7.03209959365743    0.08879656777705   -1.85055200941890
H         1.38886777780827   -0.04271229756187    3.55119106235664
H         0.59425919404584    1.22500183945569    2.67108469822160
H         2.39376351823194    1.04189259349484    2.50190212734835
