30
 energy: -57.476507755213 gnorm: 0.117705629031 xtb: 6.4.1 (79825abcba525fcdf90b791dcacef51065a7a4e7)
C         0.52890748301736    1.28540948578700   -0.37754577633293
C         1.83468101637702    0.52495811703596   -0.18495613847941
N         2.96017544834776    1.36500308623637    0.24797862834984
C         3.93850148849279    1.95125159399824   -0.63519876318374
C         4.35143091172396    0.84212118236186    0.32403847449085
S         4.61953989213705   -0.60626125481650   -0.83539486692744
O         3.50805370986877   -1.46196800366403   -1.19226074904094
O         5.91087136499597   -1.14549333798234   -0.45828341765445
C         4.86275313988806    0.37073105576647   -2.33723346671295
C         4.52967094694106   -0.33163611474612   -3.63627829316359
O         6.23590499098951    0.73417335582358   -2.06974516656266
C         4.07777160550080    1.65271466542601   -2.07576452681466
O         3.68417906387530    2.37097567145935   -2.98084503618261
S         1.61219340219972   -0.71864982160746    1.18418473322973
C         0.95291769697776    0.29043614526033    2.49065025376082
O         0.68479312070377   -1.73504325013885    0.72505209000918
O         2.96296527569806   -1.09822081644298    1.57116139219197
H         0.47251123290339    1.67654033565564   -1.39495909247710
H         0.42419705528633    2.14893556027535    0.28348461162251
H        -0.28200510457190    0.59797871266858   -0.11126192925819
H         2.13518018482404   -0.12327930514091   -1.00080238152847
H         3.98242356706550    3.01524899106391   -0.41879722434177
H         4.97625287214206    0.90188966662178    1.20560620330123
H         3.77288299254983   -1.09061524806323   -3.41256128910730
H         5.44435393328208   -0.81164663362382   -4.00422510831779
H         4.22165688464102    0.32785938153336   -4.45306936813752
H         6.69303980375553   -0.11558486464591   -1.88305619158570
H        -0.02449173550751    0.70206502239297    2.23615056509346
H         1.68612120335289    1.09457017260223    2.56056282222095
H         0.83201284413906   -0.40268546686723    3.32708108040920
