30
 energy: -57.469331626753 gnorm: 0.128767312741 xtb: 6.4.1 (79825abcba525fcdf90b791dcacef51065a7a4e7)
C         0.45294789285997    1.24424428059804   -0.31291396471824
C         1.62812876596633    0.29686383884165   -0.10836130520127
N         2.84950661420149    1.06479958846446    0.17156123113136
C         3.81201007025365    1.72287635889999   -0.67775232768878
C         4.24903968133802    0.55976997192203    0.20372695642775
S         4.76506505323236   -0.66859699695976   -1.11491332420800
O         3.66834380638843   -1.53060480396605   -1.50109188597335
O         6.11005297131246   -1.14376189733124   -0.85850140326299
C         4.99791488346366    0.53465600124503   -2.44425489644922
C         5.11529513716330   -0.10577370524218   -3.81094890633511
O         6.26837517514454    1.13550832554020   -2.10647770076691
C         3.92287302486335    1.57490145960330   -2.14389113620863
O         3.27991376353118    2.29655862341079   -2.88941043382220
S         1.50476906497585   -0.69284110822943    1.46512993449096
C         0.86969930697342    0.46120657415077    2.65870081603077
O         0.43054068755747   -1.65376733781821    1.30208441450206
O         2.85957415202561   -1.16480612929374    1.71040921095652
H         0.58680648983808    1.66636595308219   -1.31050551609451
H         0.62338875106746    2.03600431367551    0.42034498696494
H        -0.48213405544663    0.73594295753098   -0.05157339219581
H         1.63881942604495   -0.45817005245523   -0.88677386897967
H         4.04786948931623    2.75946343751692   -0.45257060487607
H         4.94783188075302    0.68591096823179    1.02037517403152
H         6.12024291779217   -0.51250022934298   -3.96418115955174
H         4.88011794225155    0.64169676194011   -4.57803398005904
H         4.39304619328123   -0.92408700383208   -3.88627779248075
H         6.70310666264985    0.39555968500919   -1.62752197539190
H        -0.10732869907857    0.92710466210324    2.52493658390721
H         1.70046112602554    1.16427459478598    2.72679517206934
H         0.93007680099733   -0.05851648417080    3.61833334012533
