30
 energy: -57.472830077218 gnorm: 0.148611385444 xtb: 6.4.1 (79825abcba525fcdf90b791dcacef51065a7a4e7)
C         0.81319905656073    2.00482329313992   -0.13310694363679
C         1.83656721285421    0.87908608348490   -0.20962444136280
N         3.14896806922919    1.30473169203440    0.29661224595597
C         4.32216328154458    1.66634115123841   -0.46079323651770
C         4.31996728387402    0.38919826820489    0.36969957919157
S         4.37713327829357   -0.84712476727977   -1.03821276342220
O         3.11702660575346   -1.26218491163039   -1.61687076618259
O         5.27554904057720   -1.89994355119237   -0.60816278446481
C         5.16970485773898    0.22707210670200   -2.25768691406321
C         5.12622369705578   -0.25628551331999   -3.69165192391389
O         6.45423840290936    0.46618384399622   -1.63963719921777
C         4.39217069842609    1.49761133151841   -1.92721042629771
O         3.63350029439841    2.07910988873906   -2.68633053572169
S         1.39213973171583   -0.44300161402998    1.02535592774425
C         1.19260687108623    0.44272610332090    2.55356538599632
O         0.10692717598889   -0.98868493069337    0.63243345232338
O         2.46914188843970   -1.39019979488067    1.27292751259242
H         0.87336953771070    2.50696642005660   -1.10033262936503
H         1.05064413785683    2.61016122141033    0.74483869992815
H        -0.11254460705842    1.43122587598398   -0.01050167883739
H         1.82969887459797    0.36256575653705   -1.16318417705558
H         4.98139875228435    2.41387985506189   -0.02784554377100
H         4.69905171070079    0.13382028250134    1.35062439106688
H         4.63656907751065   -1.21697464249590   -3.88176079028301
H         6.13618278652333   -0.39497605605063   -4.09561664209293
H         4.49098819030690    0.47618947688556   -4.19851568515815
H         6.79296149006147   -0.45166009110972   -1.54613198665064
H         1.50764699092614   -0.12471670947923    3.43009034278343
H         0.12862685685887    0.61454140099245    2.71949523778497
H         1.79334180981403    1.33846731845850    2.37631615652035
