30
 energy: -57.476144899838 gnorm: 0.125041817246 xtb: 6.4.1 (79825abcba525fcdf90b791dcacef51065a7a4e7)
C         0.30113426100775    1.43149777949439    0.12546525951075
C         1.53769285848477    0.59381753310337   -0.17392782623360
N         2.70124463330379    1.47779780212948   -0.01717341309763
C         3.71796557183366    1.98596232911296   -0.90535065102544
C         4.08438512356353    0.95661892592532    0.15625471079108
S         4.47320005298736   -0.51466728854007   -0.93833178698275
O         3.37903457603514   -1.24821217561439   -1.53808393586228
O         5.67039936810362   -1.20363019164633   -0.49950930111911
C         5.05320754015790    0.49288517820820   -2.32311161743245
C         5.34778931671199   -0.35592102213566   -3.54152470864209
O         6.26203491477926    1.04082433094843   -1.75067352805914
C         3.84966887851264    1.42909056810284   -2.26781101301962
O         3.04213352962575    1.54307275450795   -3.17603973748022
S         1.73845178504998   -0.72104593675063    1.13046401485743
C         1.60958408918931    0.08581238178917    2.70911022982123
O         0.55341248678861   -1.55631690346935    1.08648741241855
O         3.07108237527893   -1.30534900370818    1.16356032717818
H         0.13385022485789    2.16129697790687   -0.66870280543716
H         0.46823300672802    2.05802861635915    1.00474897179613
H        -0.64103219783459    0.87243843781184    0.15414271788945
H         1.58874238207608   -0.04558899578770   -1.04838184373113
H         3.84458068335868    3.05473842997601   -0.75523239459561
H         4.60190519755800    1.07134657655130    1.09973070356102
H         5.76682069513589   -1.28986614465999   -3.15295574084968
H         6.13797119244669    0.03010193008505   -4.19653524757901
H         4.42996964179895   -0.51500175470943   -4.11533216543759
H         6.94207332619414    0.33416712536683   -1.81468443679473
H         2.02388989747030   -0.67717460410688    3.36921566029973
H         0.59817069317276    0.27385492861955    3.07075871324442
H         2.26564052308469    0.95759406563933    2.77421577054955
