30
 energy: -57.472957961222 gnorm: 0.145789757100 xtb: 6.4.1 (79825abcba525fcdf90b791dcacef51065a7a4e7)
C         0.05888698603704    0.49280996835626    0.36098823820461
C         1.47327926166697    0.23292605745321   -0.14138255554486
N         2.33170707879904    1.42474935207318   -0.09133570701587
C         3.16477181383651    1.97941301014452   -1.13016333674466
C         3.79711808294822    1.18359828347950    0.00457637236431
S         4.42931528231853   -0.30155118218602   -0.94864844148526
O         3.53896586141592   -1.34728521506780   -1.40549313287863
O         5.72235613902190   -0.64591357360759   -0.39188893911611
C         4.86306884990637    0.62051221171547   -2.44224904903159
C         5.20430807460265   -0.16871370184658   -3.68822621657045
O         5.89042839648365    1.53937258785344   -2.00703154568471
C         3.51826221724924    1.34078977763352   -2.41505829663008
O         2.72148471404923    1.21283243451243   -3.33089519684959
S         2.20048999938510   -0.72486963342461    1.28143160635887
C         2.04037950451668    0.14689557358608    2.82225643527664
O         1.41788000906122   -1.93937405138758    1.40961229427228
O         3.62467722863169   -0.93696945487680    1.06903073448185
H        -0.59050926587823    0.77784041985691   -0.46867186385242
H         0.04963628275451    1.24367653366676    1.15453505730785
H        -0.28560520616568   -0.47342637465229    0.74668220840986
H         1.55204977145691   -0.30569193874641   -1.07936041156299
H         3.18643626803064    3.05633493886698   -1.27375673706686
H         4.23009419196584    1.69881384825834    0.85205556517796
H         6.08175610726887   -0.78672167665757   -3.47148276607784
H         5.38095719628152    0.56708915551396   -4.48184398681817
H         4.39450188104228   -0.82840683604156   -4.01376197430419
H         6.47894467355375    1.00712066648952   -1.42714317079144
H         0.95789131518592    0.17465593944220    2.95258795449095
H         2.50487936014560    1.13253740538144    2.86534641528417
H         2.55890825544571   -0.54213981911664    3.49382939669210
