30
 energy: -57.465909027352 gnorm: 0.149236454245 xtb: 6.4.1 (79825abcba525fcdf90b791dcacef51065a7a4e7)
C         0.32654620538116    0.64230057717052   -0.12217450366585
C         1.76208370103585    0.13311740329181   -0.10252319166517
N         2.64753895438688    1.29670948108287    0.04535601519932
C         3.42164140778352    1.97165609306824   -0.96757237733996
C         4.12936747483190    1.18911770466828    0.13132459427961
S         4.68686291459582   -0.19573201919887   -1.00241692405130
O         3.76387908483924   -1.27760920460556   -1.27191913256383
O         5.96120421388686   -0.78276538353529   -0.63914383287874
C         4.70005688047423    0.71067486105275   -2.56684599677568
C         5.04324897168372   -0.28469596289639   -3.65461295700250
O         5.64218875825174    1.80213294847666   -2.46539123012914
C         3.35291107955205    1.38380894757681   -2.32162630354602
O         2.33821216225753    1.39369752276288   -3.00006054311336
S         2.04587947834712   -0.88408013782687    1.43220065497917
C         1.52255618275824    0.10791447895581    2.81126936602153
O         1.23653380434163   -2.08578710458432    1.50140769677488
O         3.48197544219760   -1.08617245691179    1.55547598265069
H         0.04962929614642    1.42151916410670   -0.83451512048267
H         0.10963068641391    1.09475025782040    0.84830974192572
H        -0.40098158522376   -0.17119440784646   -0.22205745225998
H         2.02183936787274   -0.55293171229711   -0.90125981594252
H         3.33352793349302    3.04724155590040   -0.84028862248205
H         4.77225943579860    1.64556083253399    0.87259783180775
H         6.13142483615021   -0.33202341116544   -3.76623746775192
H         4.64309582330316    0.05330811017343   -4.61797718054054
H         4.69938121484303   -1.29654406255572   -3.42036304398965
H         6.53117662660309    1.39731695950306   -2.57373618273283
H         0.43466391008868    0.07207132429887    2.88014094174924
H         1.81712915941413    1.13678605426603    2.60208828247757
H         1.97779887773161   -0.31820877830368    3.70894700224122
