30
 energy: -57.471406249404 gnorm: 0.134693603190 xtb: 6.4.1 (79825abcba525fcdf90b791dcacef51065a7a4e7)
C         0.80350571792585    1.80685701459535   -0.19894118554239
C         1.90283180803759    0.75306319726052   -0.16122686163026
N         3.19659736818915    1.26177156017831    0.31546171077037
C         4.31921632140457    1.73959847322512   -0.45409658149814
C         4.43671377004626    0.43917710570519    0.33070663579860
S         4.62776815024128   -0.84440537548926   -1.02202905762976
O         3.32580437381124   -1.39031447951541   -1.34118798423664
O         5.72973990748964   -1.70768242378452   -0.64661961411503
C         5.03359223296928    0.32943043879523   -2.33603139183765
C         4.83774749442820   -0.12189184902749   -3.76772056038821
O         6.42900440242622    0.65318071612864   -2.14316632320501
C         4.09363197097782    1.44311454015692   -1.88411719009794
O         3.39310735232063    2.02706050401919   -2.69544765145926
S         1.40217666309539   -0.48551308022023    1.13718810964573
C         0.89640317516488    0.37011295549372    2.61090733784882
O         0.17741675749308   -1.10460284898131    0.66748533404793
O         2.53835336840541   -1.33873684702746    1.45265827460141
H         0.77302653637725    2.33131833707168   -1.15565695711967
H         0.97517965775772    2.58649310209656    0.54691292225050
H        -0.17022061689212    1.33613794845255   -0.02194412627629
H         1.94184517689248    0.16754690200340   -1.07323851618196
H         4.80215523027142    2.68767879671690   -0.23327356014277
H         4.95267668509102    0.34730152390028    1.27753154577543
H         4.64631883339190   -1.19908298105086   -3.72481410366092
H         5.78718091796641    0.02593361437732   -4.29608003068817
H         4.05935271633956    0.45596705412846   -4.27480565262591
H         6.90862726818789   -0.19069496326782   -1.98905665990880
H         0.41872206690505    1.35024322505795    2.63742218084504
H         1.64532384806048    0.41114652187863    3.40245061240676
H         0.21243730828310   -0.40598431107998    2.96377531071414
