30
 energy: -57.473283073217 gnorm: 0.140047679402 xtb: 6.4.1 (79825abcba525fcdf90b791dcacef51065a7a4e7)
C         0.97423867945311    2.38395913261834    0.17791315694777
C         1.82116380148857    1.17596212993471   -0.20140557687384
N         3.19689624314570    1.39638874018740    0.26616032598829
C         4.42632875666637    1.69710303213374   -0.42585011212853
C         4.28432424956195    0.38242319740309    0.33063459046841
S         4.13591417307709   -0.88717853034809   -1.04052022758410
O         2.86171254084457   -0.87675506629029   -1.72702616200814
O         4.65934986732360   -2.16464878880740   -0.59937843757590
C         5.27478631038819    0.01127593337347   -2.11984208426517
C         5.48466042676058   -0.48955609304021   -3.53295955218196
O         6.49385225315906   -0.10250449600135   -1.35165035084237
C         4.52154280473921    1.31021613485105   -1.84887603344871
O         3.97640440483501    1.84196644970836   -2.80284169001580
S         1.34170383839398   -0.29671474377441    0.83394420496996
C         1.30275575088049    0.24292387348779    2.52717316396305
O        -0.03293201479002   -0.59424940532601    0.47929076528044
O         2.39271972889392   -1.30351186378315    0.84555817057820
H         0.97361822109682    3.08088753226590   -0.66207740823113
H         1.45471067119481    2.86952564479072    1.03054118226989
H        -0.02756021261977    1.94977706796478    0.27242395178348
H         1.72339162111293    0.94001871935791   -1.25539226720843
H         5.03331230709851    2.51441244270621   -0.04581667809459
H         4.72535099582052    0.23871925733407    1.30837732829829
H         5.57652442588206   -1.57847521384187   -3.60109754293385
H         6.44792502095988   -0.09104994399078   -3.87318608589582
H         4.74914627530524   -0.04035839868156   -4.20689945900110
H         6.71747501670929   -1.04516895534744   -1.18645161941329
H         0.82804199860001    1.21770131371960    2.64546694449670
H         2.25796407916866    0.22091006520475    3.05271966527139
H         0.58511653098635   -0.52488149341167    2.82737467815008
