30
 energy: -57.475723858717 gnorm: 0.132173550816 xtb: 6.4.1 (79825abcba525fcdf90b791dcacef51065a7a4e7)
C         0.31421916805034    1.33253045625004    0.03999283503776
C         1.60362536259627    0.54302830148877   -0.14585546540388
N         2.76442860443677    1.41428404487250    0.08500172854285
C         3.72336492382190    1.90868482560176   -0.87250569464152
C         4.15084157320159    0.87943593221521    0.16611238229668
S         4.36425949051682   -0.60038185750714   -0.96462714076472
O         3.17967461831733   -1.22849138871901   -1.50981144979729
O         5.41597131209646   -1.48307221241156   -0.50064304838987
C         5.01956630540930    0.43995867571884   -2.29031578900144
C         5.42817421654581   -0.15684956510822   -3.62021817153484
O         6.16087488478360    0.98988315147066   -1.59448240415008
C         3.89663531140145    1.47281812864073   -2.27384354359820
O         3.32702481899111    1.93738348494848   -3.24837297228536
S         1.81953788850667   -0.72680067339078    1.20007333345108
C         1.48817854643197    0.23025321389426    2.66089500059865
O         0.77660619542243   -1.71657124902159    1.00882125242094
O         3.20954678715835   -1.15516779696987    1.25286157149282
H         0.11262090150001    1.99736369405543   -0.80181987536704
H         0.13804319074649    1.78140487716700    1.02033793113115
H        -0.45577495756170    0.56428155769681   -0.09398498184596
H         1.51251975694282   -0.06400171016735   -1.03990855092571
H         4.00018013872019    2.95317024233674   -0.75729809764318
H         4.89994513565102    1.07110169389554    0.92324149559235
H         6.40688308282554    0.27668254374154   -3.85044739752687
H         4.73758987508747    0.17076468900449   -4.40647645644050
H         5.37388229746388   -1.24602357066819   -3.70800772569032
H         6.59317677034085    0.14320436291068   -1.34515500390725
H         1.97960189195138    1.20311968821099    2.70053767228121
H         1.71097936367050   -0.43023997196258    3.49947429334082
H         0.41694911542443    0.43608860911005    2.72982523081847
