30
 energy: -57.474481997184 gnorm: 0.132076673618 xtb: 6.4.1 (79825abcba525fcdf90b791dcacef51065a7a4e7)
C         0.86858257731344    2.17321626862938   -0.28555648659381
C         1.82210538215177    0.98649477141246   -0.23163082939173
N         3.16217224884340    1.33171608123908    0.26323133919558
C         4.44314363705355    1.57586662064063   -0.35346523485344
C         4.16751182365878    0.23570471904224    0.31646808563335
S         4.18079996185853   -0.98531114687333   -1.10582700082372
O         2.88332850484064   -1.13515264678879   -1.72960916568114
O         4.86086200038884   -2.18490140393029   -0.65971030717431
C         5.24887761869381    0.09262405299489   -2.08890973367645
C         5.32260286215039   -0.23959103995519   -3.56402958176005
O         6.52018313510877   -0.10628415930724   -1.43057539087876
C         4.70952300989775    1.49129438362551   -1.80454741250965
O         4.51689177200552    2.39255732631792   -2.60492424224593
S         1.23944414426280   -0.28478175371709    0.99921038055974
C         1.53724030663868    0.42041367469154    2.60350709618192
O        -0.18687717710757   -0.40135640145290    0.76267813006558
O         1.96062553982546   -1.54549801766212    0.90486196667745
H         1.30148799831956    2.89199491666500   -0.98358505357201
H         0.86093191395998    2.61108861425803    0.71534910257633
H        -0.11961863957595    1.90305422292901   -0.67480987098385
H         1.96879840508475    0.48221354700505   -1.18047129284911
H         4.94086206460313    2.45603822080809    0.04455917567637
H         4.49218812861003   -0.10073834395729    1.29244329885489
H         6.21304569198546   -0.79171052559750   -3.88199541559436
H         5.12408931275059    0.64427942966175   -4.18193352797504
H         4.50631644313638   -0.90908631948698   -3.85109610004497
H         6.66365202797496   -1.03529795273744   -1.14375821507429
H         1.85699203090829    1.45902985172899    2.51091716856667
H         2.33157150515916   -0.14598828562828    3.09067590631081
H         0.58117585564228    0.26315102528914    3.10933444341977
