30
 energy: -57.475513654527 gnorm: 0.137181403314 xtb: 6.4.1 (79825abcba525fcdf90b791dcacef51065a7a4e7)
C         0.55496177721043    1.23447458109580   -0.39055990709773
C         1.80470374432511    0.38170457182976   -0.21350085931131
N         2.90233238873873    1.25674920999557    0.22164739531567
C         3.87687469091330    1.85259733075600   -0.65928608068172
C         4.27440893244910    0.68043667975647    0.22887100059670
S         4.64826945451032   -0.66987428686799   -1.01646766917710
O         3.59235607587485   -1.59615889296893   -1.36579930902973
O         5.94384002801592   -1.18008343975855   -0.61434235765901
C         4.96165614466434    0.49033375892602   -2.36735327227264
C         4.77377999430835   -0.10588220576373   -3.74612443676659
O         6.17369943500164    1.20047245313263   -2.02699992827018
C         3.90154992194732    1.55632776558528   -2.10682386522222
O         3.03221874854830    2.01823075462176   -2.82855348252952
S         1.61704103260257   -0.71622822984788    1.27979564496414
C         1.30936978903479    0.36300744597491    2.65832379555369
O         0.48917211153671   -1.60297613689706    1.06644261974306
O         2.96439405171031   -1.21584251523636    1.51095605728403
H         0.71192416956380    2.13908199650904   -0.98076492768014
H         0.23160009374349    1.64625066740912    0.56833550094571
H        -0.20682729573061    0.56824860778243   -0.81111637155939
H         2.09861830949594   -0.25230964692031   -1.04281189715247
H         4.03934805989545    2.90052161122726   -0.42199649458103
H         4.79465153167413    0.62768626429848    1.17634207451137
H         3.70778741329231   -0.08053257930857   -3.99480866313394
H         5.13805658486291   -1.13995275525229   -3.72513427162019
H         5.32853827219261    0.37335677081795   -4.55823766108186
H         6.69448170871763    0.60496279501887   -1.44384633423720
H         0.36037226973833    0.25232471549931    3.18433773481132
H         1.29577019226280    1.37368209050283    2.24910686432573
H         2.09439746256863    0.33998345434278    3.41849057197892
