30
 energy: -57.475398326159 gnorm: 0.130846302204 xtb: 6.4.1 (79825abcba525fcdf90b791dcacef51065a7a4e7)
C         0.49797164029976    1.30842629643888   -0.27408683616557
C         1.76137550413495    0.46388551066074   -0.16928627406789
N         2.86891431541443    1.30574052665675    0.30451058156405
C         3.78141374316471    1.91350835643041   -0.63291935418305
C         4.24122854823576    0.73648911099982    0.21797047547837
S         4.65844754247228   -0.62825664062740   -0.99750348510703
O         3.65277333033892   -1.64991667123054   -1.19705050107358
O         6.00696312687351   -1.05341989161300   -0.67928470064596
C         4.77952179465605    0.47988010645977   -2.42107638857336
C         4.81146920050003   -0.29275381807282   -3.72253596249503
O         6.06315144890660    1.00956323952486   -2.01993178942759
C         3.80977222325157    1.60686000689199   -2.07822642083515
O         3.20379030924688    2.18425660923801   -2.96669917626026
S         1.68368792982497   -0.74498352734944    1.24606120482804
C         1.18070902710285    0.34629572898790    2.55597452533537
O         0.65788233291720   -1.76476044874343    1.13785966242916
O         3.06020445923103   -1.14825315246649    1.49301379435381
H         0.51471461326764    1.86616658516595   -1.21213756629365
H         0.52265734247467    2.09153626048780    0.48731458395862
H        -0.41486268483058    0.70642792417358   -0.34742733683657
H         1.91229526361719   -0.15987695812284   -1.04350606421609
H         3.97476838297398    2.94376963019470   -0.34651959776766
H         4.71506615719777    0.91789172261295    1.17385085774510
H         4.48586245232238   -1.31944369912103   -3.52577528225184
H         5.84317718387248   -0.26687052430326   -4.09314170420550
H         4.20198002551608    0.20196005544424   -4.48459617190731
H         6.64812852832577    0.23307627965631   -1.87576569913104
H         1.02481475103187   -0.26404567526827    3.44632163061138
H         0.32893537897823    0.95154410721024    2.24410478319670
H         2.01920881596453    1.03212448747588    2.70160796462920
