30
 energy: -57.470600344209 gnorm: 0.124689567234 xtb: 6.4.1 (79825abcba525fcdf90b791dcacef51065a7a4e7)
C         0.63635690619518    1.32744219990064   -0.58711792706158
C         1.84922632435742    0.44639592345504   -0.31669814743631
N         2.92767771718396    1.19877621386158    0.33958840792546
C         3.95009692107913    1.84615737205408   -0.44550294317142
C         4.28001428579709    0.57757450882350    0.33081498597602
S         4.75450825599552   -0.76932341324285   -0.88355771255757
O         3.75124958438339   -1.78904544543367   -1.10407498134646
O         6.15964696040473   -1.06353891863056   -0.68470167242681
C         4.77824753504118    0.36755820885181   -2.28930394129583
C         4.52852015784039   -0.15112414898360   -3.68944168193183
O         6.07264980932176    0.99127612135445   -2.13218927229816
C         4.00840096289369    1.62786192189277   -1.90587881352612
O         3.43292799954694    2.32299354782388   -2.72783236392451
S         1.50657023117403   -0.66110988730555    1.14159738826205
C         1.33271796225265    0.53324603830386    2.44660329282971
O         0.26720400844875   -1.39391173815689    0.96580637608115
O         2.66636639660323   -1.43583825096042    1.55762448511115
H         0.87379334060317    2.04924327482118   -1.37064895793770
H         0.36634493547810    1.85416351908845    0.33117446081623
H        -0.27693856975737    0.80382285078126   -0.89168569320054
H         2.11668949327724   -0.14203040789793   -1.18752220311889
H         4.22633812204780    2.85270308431965   -0.14316929110497
H         4.76175311248417    0.52942453093572    1.29867114720890
H         5.43298917202252   -0.33597497109809   -4.27816284456735
H         3.87009674178117    0.60260431661625   -4.13756212167423
H         3.85496681413215   -1.01129059049249   -3.63118175247146
H         6.76100989766391    0.30264981299395   -1.99851713615207
H         2.00714941508834    0.14730533919252    3.21193303555181
H         0.35039171525769    0.27375443266078    2.84259058311229
H         1.55329710709767    1.58546055471972    2.24952073956278
