30
 energy: -57.479444115035 gnorm: 0.127940752206 xtb: 6.4.1 (79825abcba525fcdf90b791dcacef51065a7a4e7)
C         0.87931633395250    1.98183837374890   -0.27963824888447
C         1.85033312650235    0.81577075376478   -0.14609323782265
N         3.10439905048745    1.33985769114916    0.41292135792273
C         4.19391229590187    1.80078796904224   -0.41249709602071
C         4.31309428863375    0.47563465381799    0.32951462411407
S         4.44750817231319   -0.85989481459455   -0.97902417305480
O         3.18666341421735   -1.47498281800779   -1.33529102842284
O         5.57811199812014   -1.72010390340749   -0.69215039606883
C         4.89341511906198    0.29668946185460   -2.29533175289945
C         4.72135168124247   -0.31208134244709   -3.67067648492391
O         6.24419790884069    0.68402031970444   -1.95688387950874
C         4.10858404034352    1.53167959358073   -1.86303145395616
O         3.57781084013920    2.27371073460208   -2.67399032536514
S         1.58145100495653   -0.58836248586339    1.04836079410625
C         1.04391810338382    0.27587566777340    2.50572207159255
O         0.46670572126781   -1.38445562217106    0.57138245321416
O         2.80456338764564   -1.28487099617182    1.41887627673735
H         1.23333910276744    2.63947310906579   -1.07555166656870
H         0.77449330070873    2.61027573125404    0.60787589064519
H        -0.10474241417281    1.62175750673045   -0.60060168880410
H         2.02870165574459    0.38148898044998   -1.12369264769923
H         4.69653061730955    2.68500888989207   -0.02990406500517
H         4.98923647394386    0.40059146816403    1.17114201388195
H         4.25096712102210   -1.30042352106230   -3.64338667411203
H         5.75699489538368   -0.40094489222513   -4.01994189295874
H         4.07895389611119    0.38120346876315   -4.22170814357786
H         6.69567608050585   -0.12153699808241   -1.62049286893110
H         0.27757801000739    0.96580138552821    2.15038703511998
H         1.85086238110331    0.88816845346087    2.90951058086423
H         0.65632573407736   -0.30980904316594    3.34321694028285
