30
 energy: -57.475806910491 gnorm: 0.123215483864 xtb: 6.4.1 (79825abcba525fcdf90b791dcacef51065a7a4e7)
C         0.17918714535473    0.53465557686548   -0.21121737704873
C         1.65113905467125    0.15111397501336   -0.12951645065342
N         2.53051053629905    1.31199541576816    0.06772862841393
C         3.31368496287355    1.92779557253977   -0.97545870037024
C         3.99783055747531    1.06363501457701    0.07620131647840
S         4.78878225349011   -0.26679830384693   -0.98130623401698
O         4.08453844234846   -1.52287374015771   -1.12726513955042
O         6.19655186446515   -0.33271788210201   -0.64313379640431
C         4.73548301887873    0.69334422623502   -2.51247289752331
C         4.80835693022093   -0.03800864012546   -3.83595059793623
O         5.75981299585946    1.65362299308475   -2.16925417992831
C         3.33070818729849    1.24383446584281   -2.28528974527224
O         2.37700128341237    1.01758443930766   -3.01277776362825
S         2.07694863622414   -0.78868411115435    1.42163600823231
C         1.55586666092026    0.18472582352598    2.81472529936456
O         1.23576672147201   -1.96571059298889    1.31698748314608
O         3.51999467124679   -0.82078108502135    1.60871260437930
H        -0.04900784082198    0.99607978993212   -1.17366658202841
H        -0.09069330965844    1.30564762877996    0.51427453648822
H        -0.42087722721306   -0.35527761029060    0.01011731488299
H         1.88603876429562   -0.59001721721722   -0.88560065097478
H         3.42352592258773    3.00483845141484   -0.88184922770353
H         4.58779503775983    1.37019950735834    0.93007272101345
H         5.81985480165417   -0.24180223377739   -4.20223854261380
H         4.16976504396721    0.50916345805815   -4.53968564813032
H         4.36603862463450   -1.03664057412533   -3.77236278403852
H         6.46504193510148    1.02529629720795   -1.89764462495296
H         0.51762802652325    0.35475439926235    2.52716931455563
H         2.22179314791858    1.04739986414067    2.85270024655644
H         1.62913552445747   -0.42440640899305    3.71929242098087
