30
 energy: -57.469174073688 gnorm: 0.133933834947 xtb: 6.4.1 (79825abcba525fcdf90b791dcacef51065a7a4e7)
C         0.61492655556858    1.61355226592052   -0.35442788137163
C         1.82685513488827    0.70222624682611   -0.20904706415061
N         2.97460995024672    1.42805337756692    0.35280666923792
C         4.00496644517997    1.92576817660224   -0.52551954578784
C         4.23488429930077    0.64182278151583    0.26152496103669
S         4.44643208749259   -0.77896002422715   -0.94288509743730
O         3.26527718479763   -1.51268774936497   -1.34476262367502
O         5.61391790023009   -1.51129186547049   -0.49434501481330
C         4.89388393213869    0.35799313356677   -2.27566797775172
C         4.81544326478009   -0.27391660530650   -3.64910090087186
O         6.18088201093981    0.69808702781156   -1.71249980566036
C         4.04305619372246    1.58534310168553   -1.96302088176116
O         3.49838823072015    2.34261051531801   -2.75033757722160
S         1.64634227446344   -0.62910682525389    1.08152472544007
C         1.35155157016152    0.33591692958198    2.54493809587835
O         0.52473767131858   -1.45268935683771    0.67208047450071
O         2.87085945725171   -1.36785115816341    1.35212444462698
H         0.84620436902889    2.39198071064390   -1.08371072347169
H         0.29791706031165    2.08506726228054    0.57872875939541
H        -0.12399577492434    0.98745561613004   -0.86730618444333
H         1.87459122906487    0.18646523161589   -1.16184737342073
H         4.42544673764155    2.88514477851257   -0.23631009894430
H         4.99958959334849    0.57458346562797    1.02431005477012
H         5.29620382697958   -1.25746669606044   -3.66713229704052
H         5.37427792362054    0.32404569446574   -4.37888500224005
H         3.82962265868403   -0.44271519245724   -4.09251876451587
H         6.68173569297067   -0.14283127910845   -1.62352770888761
H         0.70697338077094    1.15695823229550    2.22879293952295
H         2.29859021382148    0.77924557070835    2.85426673398986
H         0.89232060165639   -0.19690273251918    3.38151577052667
