30
 energy: -57.475871151756 gnorm: 0.132896735142 xtb: 6.4.1 (79825abcba525fcdf90b791dcacef51065a7a4e7)
C         1.11439896614477    2.24630904582949   -0.05374462336917
C         1.95364809631989    0.97590310450112   -0.10012627654486
N         3.30287820015208    1.31390623399953    0.37440248686968
C         4.40364615717403    1.63067052757076   -0.50239971705793
C         4.41411546459052    0.32784463961096    0.28712707384071
S         4.48730708672018   -0.97028386634857   -1.06323768341611
O         3.14415916913524   -1.41370555939686   -1.37035284110929
O         5.53483251249526   -1.91681898003686   -0.73569680353007
C         5.09228244311212    0.19743219475423   -2.30405590406072
C         5.09941453838647   -0.28398323371804   -3.73931517124814
O         6.40668858434453    0.45266480186087   -1.75964878363015
C         4.19169981813024    1.37477496204483   -1.94231157840487
O         3.30190766260124    1.92675058831890   -2.56966919022283
S         1.32071095735294   -0.37967058291058    1.01001730212419
C         0.84281399473777    0.32856555461783    2.56878834500950
O         0.13603844499268   -0.95866132351055    0.40565778495542
O         2.49001563279902   -1.18843317818236    1.32152872670127
H         1.26006311376103    2.88757970920950   -0.92486322706419
H         1.23289671174149    2.85237885456293    0.84749917998832
H         0.07896796003738    1.88766870942147   -0.03621988112899
H         1.76037601599313    0.49131927819852   -1.05088442609320
H         4.90750617666661    2.53556965728564   -0.17356576145475
H         5.03415943517134    0.20946812322726    1.16614285753097
H         6.09258108412226   -0.37638542877639   -4.19087765633481
H         4.45703863730334    0.46878730675377   -4.21168117145253
H         4.62213993190676   -1.26564031540234   -3.66506588132913
H         6.64934375068236   -0.37234732443816   -1.28384682320468
H         0.21998912005978   -0.42080915789847    3.05875195471802
H         0.22655172940810    1.20743934784907    2.37667286104500
H         1.76966303425635    0.61116067000645    3.07449867655846
