30
 energy: -57.471624634987 gnorm: 0.131459689871 xtb: 6.4.1 (79825abcba525fcdf90b791dcacef51065a7a4e7)
C         0.43599295786361    0.61152526772535   -0.21422635429687
C         1.85138948464091    0.07803408621296   -0.03405573745871
N         2.74393117629528    1.23792792611293    0.09958979012573
C         3.41723972533091    1.93686100275180   -0.96763089179372
C         4.22108231357304    1.08338895939373    0.00511780196607
S         4.84070138208863   -0.30355528447034   -1.09326168280752
O         4.00285346307831   -1.48247837450048   -1.14929793369199
O         6.23787912165750   -0.54063315179598   -0.78960115629059
C         4.72157317199587    0.68040209035519   -2.60548593574261
C         4.78916963480116    0.00425259915865   -3.95827321711500
O         5.67623892814324    1.72759682619641   -2.32056001600375
C         3.35183700998540    1.27158875463779   -2.28554032766016
O         2.28193083074322    1.09594088449233   -2.84628388454827
S         1.94874543086207   -0.87871150436523    1.56149053558986
C         1.29515384961914    0.28634131243628    2.73418873929416
O         1.07308733101017   -2.03221731332707    1.48039241167889
O         3.36114237309598   -1.02596214167716    1.88064857463813
H         0.49476724311294    1.19880394644215   -1.13234566406929
H         0.10300316023333    1.31114393855012    0.55600363150684
H        -0.22035719852879   -0.26607670057474   -0.20606345545144
H         2.14538331671483   -0.63551944378566   -0.79597805634758
H         3.42270760437367    3.00059962624453   -0.74564130006007
H         4.85632352520697    1.69426316754091    0.63316046237356
H         5.50868231745093    0.44448333269936   -4.65635991090664
H         3.82607164421778    0.15597543850217   -4.46013212531399
H         5.04040644182650   -1.05377345872787   -3.83820839788413
H         6.31619299137938    1.27512352026470   -1.72756697371061
H         0.21587451481557    0.27889505042549    2.89115463965192
H         1.51250761163011    1.27417325424965    2.32669385583835
H         1.79579198399632    0.13589183306135    3.69407336426886
