30
 energy: -57.472487192990 gnorm: 0.136376405431 xtb: 6.4.1 (79825abcba525fcdf90b791dcacef51065a7a4e7)
C         1.00437333086177    1.83077437168561   -0.24526405154493
C         1.92708540524735    0.63283213374294   -0.06098588608871
N         3.24984337441577    1.03419682417237    0.43807649976957
C         4.21166942645826    1.62501964530110   -0.46004981633431
C         4.53775399785470    0.31412605336996    0.24425431976502
S         4.50842029791445   -0.87208711592958   -1.20695810168071
O         3.20723334222798   -1.47115899078746   -1.41435684952986
O         5.62956789440788   -1.77657097328630   -1.04740158049708
C         5.12406237098047    0.40668354331804   -2.32718855792471
C         5.24818608886802    0.11778627705062   -3.80803713828076
O         6.43868770959661    0.59032875385363   -1.75515625480278
C         4.17496652198925    1.53501700495077   -1.93460138983952
O         3.39178718434822    2.07405000484652   -2.70014584287458
S         1.21432574176048   -0.49189837155306    1.24191977682017
C         1.00906157041346    0.61634213527635    2.61648177870896
O        -0.04938131494957   -0.99767148942133    0.74075344387474
O         2.15533581049719   -1.49499875413311    1.71804937996022
H         1.00515033806437    2.07652132493064   -1.30870260679582
H         1.33977037471998    2.73017581237169    0.27645291447304
H         0.08830417414361    1.45632551499633    0.22553604431714
H         1.88643889954767   -0.11661417027960   -0.84379795561332
H         4.65182954888448    2.55319802833762   -0.10565868665914
H         5.19822413659371    0.14908031617570    1.08548873994763
H         4.24816956937787   -0.00040769250069   -4.23794849820736
H         5.71158560412670   -0.84798587617848   -4.04252585961537
H         5.82911272005969    0.87107882836528   -4.34843441289332
H         6.84596236598566   -0.30313517914832   -1.79715147557950
H         1.95400683838803    1.14053906714973    2.76424388558023
H         0.87214855927932   -0.10143112764155    3.42590321004120
H         0.13569769332014    1.26809883376590    2.53221538612424
