30
 energy: -57.465880669685 gnorm: 0.151106169193 xtb: 6.4.1 (79825abcba525fcdf90b791dcacef51065a7a4e7)
C         0.91010584140527    2.11284804009667   -0.08775225746262
C         1.84006072700670    0.90654964684434   -0.06654580699206
N         3.14014134212576    1.35433485929705    0.45222614599189
C         4.25150916816854    1.68766708963525   -0.40484036994514
C         4.28208293120048    0.40093003557458    0.41013845128910
S         4.33538117928611   -0.78367412187577   -1.04170586994211
O         3.03770672300826   -1.07188271079469   -1.61438873137039
O         5.27022100981249   -1.86410652765822   -0.79826887028366
C         5.08113407970398    0.35170553431307   -2.23500025419877
C         5.16757075957975   -0.18579022938292   -3.64758931263152
O         6.39248379490425    0.64479014281196   -1.70241257442476
C         4.14053681746617    1.49493940859437   -1.86576169074102
O         3.26396486421521    1.75784327734982   -2.67352893902813
S         1.50978520676182   -0.55561889418185    1.03961396303582
C         1.22397347271005    0.27042375501023    2.58742412369694
O         0.33390750179191   -1.26073119395074    0.56626638082828
O         2.70910350271698   -1.38026546560745    1.03777419704541
H         1.18372585231719    2.80554918348138   -0.88561875319291
H         0.90092535573379    2.54380113081846    0.91613910871057
H        -0.06439015547391    1.72787958560690   -0.40900638884911
H         1.85318482246660    0.35654712922853   -1.00112679399540
H         4.79210730861821    2.58620971756723   -0.11984228211958
H         4.81979645285667    0.01350387515525    1.26565078964792
H         4.78830940533552    0.38039221742626   -4.50457524817452
H         4.53515456214813   -1.07780078118203   -3.73009296123969
H         6.22947849683286   -0.34498160346339   -3.85726691571621
H         6.74357175034997   -0.24721587095792   -1.48567180110621
H         0.82767091174150   -0.50822416523807    3.24025589329149
H         0.50129762811451    1.07214843885843    2.43223443976160
H         2.14323933645045    0.76001414065529    2.91894125236671
