30
 energy: -57.472215802283 gnorm: 0.131805678613 xtb: 6.4.1 (79825abcba525fcdf90b791dcacef51065a7a4e7)
C         1.09546771780506    1.85817144852780   -0.62988653002828
C         2.02548689399851    0.73678424862050   -0.18494085671001
N         3.24739444994937    1.21496604550092    0.47697292924005
C         4.44301734899804    1.54486707979352   -0.25954771330431
C         4.35095245189162    0.21650269002757    0.48058008612833
S         4.64531466819409   -0.91704808447122   -0.98311159045936
O         3.46533600974137   -1.67811207950774   -1.33442454641714
O         5.89081245384644   -1.61182319423160   -0.72515021950357
C         5.08452243964789    0.25916731317716   -2.28418795483539
C         4.66370220421236   -0.16073635392887   -3.67644227463325
O         6.51364549738319    0.37304420822110   -2.10027046796967
C         4.37217870633316    1.49148295280434   -1.73463489555879
O         3.78665997690926    2.28038804707751   -2.45905277146470
S         1.15558541477874   -0.36071669703622    1.04362386013377
C         0.98851814305462    0.55199270592362    2.55980365593889
O        -0.23978284788915   -0.43997240641766    0.65555735606071
O         1.88209481285485   -1.58651988415660    1.34027242392552
H         1.57552043302175    2.42349518382760   -1.43066877235555
H         0.92518799194183    2.60296227341339    0.15107068444000
H         0.12146261784671    1.44964609266573   -0.92223645672386
H         2.18417518987301    0.15633035060236   -1.08716471568471
H         4.98719036912858    2.35641983979508    0.21595945804180
H         4.71400043983508   -0.10767106348681    1.44714304113291
H         3.71653827494304    0.24102648988408   -4.05100033232842
H         4.53192211136723   -1.24852563119437   -3.71873196389300
H         5.43994317780005    0.06260029146173   -4.41436186788092
H         6.71347090134231   -0.40599179748632   -1.53539282336055
H         0.42379858065211    1.45858102859163    2.33906160793405
H         1.96773219649182    0.74041941086412    3.00109935862681
H         0.38598370534787   -0.08744438069804    3.20997635913140
