30
 energy: -57.475575554644 gnorm: 0.128691435708 xtb: 6.4.1 (79825abcba525fcdf90b791dcacef51065a7a4e7)
C         0.35288676234152    1.23752442394153   -0.32253436285576
C         1.65783015207198    0.45177464691776   -0.31063243421936
N         2.72506765303294    1.38112482672749    0.08579903086862
C         3.76166260452305    1.87797222752566   -0.78565114136519
C         4.08637948768042    0.80009665689763    0.24077989315422
S         4.38705191375432   -0.68623305086341   -0.86121817048833
O         3.27711175283834   -1.35163951123851   -1.50948966368191
O         5.57082996898713   -1.42925135614694   -0.47766298564138
C         5.04852260694635    0.40737182424005   -2.14015160720884
C         5.22776511606907   -0.17317596494570   -3.52673634482986
O         6.25961606440777    0.96451272471587   -1.58155250614990
C         3.96808415113202    1.48334651600889   -2.19469713276002
O         3.43974662066725    1.98020322750615   -3.17652075546274
S         1.70814557464773   -0.67863104953366    1.16932010308762
C         1.63554993017208    0.51380315411760    2.48559577391291
O         0.53078428158882   -1.52512741080274    1.20387386178419
O         2.98791047660728   -1.37084576779684    1.20740300385407
H         0.32747060999108    1.93496729622156   -1.16171324030094
H         0.34379433221402    1.71871148470401    0.65827095091842
H        -0.50856580917967    0.56006849041260   -0.32198667306646
H         1.76778430189588    0.01098540443688   -1.29538192512285
H         3.95522336786345    2.92370066120599   -0.56241269037901
H         4.70793247106431    0.98017585410937    1.10817808672842
H         4.18220198213883   -0.30767984926467   -3.82259622558621
H         5.84544185367195   -1.07858372882700   -3.56067970667177
H         5.66531185787935    0.54976451263583   -4.22162090178918
H         6.77088433871982    0.18807934219226   -1.26269517449088
H         0.64878437154703    0.97681449067452    2.44749252667728
H         2.46393116038659    1.22132458029522    2.43758898320054
H         1.77673005035276    0.05477761408231    3.46743884069646
