30
 energy: -57.475223238439 gnorm: 0.137239466892 xtb: 6.4.1 (79825abcba525fcdf90b791dcacef51065a7a4e7)
C         1.27390907709121    2.13589928622058   -0.31626899870661
C         2.01675105284288    0.81431645182194   -0.16785665523433
N         3.27918284896707    1.14807031227306    0.50647253806718
C         4.46982003697679    1.48605900409818   -0.23444484655385
C         4.36610166403131    0.13270307049245    0.45728320985897
S         4.42731823143103   -0.98961711232447   -1.04292663051294
O         3.15435760335766   -1.51639128300386   -1.48685124152519
O         5.45799189571674   -1.98692937665794   -0.83411736159417
C         5.00920159743703    0.19443875310202   -2.27929603154351
C         4.76226868150050   -0.16546306425413   -3.72887378305115
O         6.42841770928580    0.20611672056202   -2.00566205620015
C         4.49267405146179    1.51321009023511   -1.71177027743825
O         4.08502523581320    2.46135623130480   -2.36355712229846
S         1.18910686011145   -0.34744999804018    1.03043880571065
C         0.79088746862799    0.68802110368136    2.41931317440283
O        -0.08509221692796   -0.81461102826229    0.51847498953236
O         2.26456067467492   -1.26344529528333    1.38081208640227
H         1.36792487787842    2.64246964935689   -1.27847543482866
H         1.62021744144018    2.80311652623941    0.47650738501898
H         0.24135022447932    1.81548677007746   -0.13681033499976
H         2.19977554228746    0.21958351327588   -1.05606349778359
H         5.09303800684947    2.20806219922053    0.28628529392559
H         4.91750583022934   -0.28251946272464    1.29075781642994
H         5.50437473479237    0.41584261981742   -4.28581986556481
H         3.67824452230237   -0.08387117139150   -3.87265941801635
H         5.06538707340630   -1.21448130414078   -3.79695172642595
H         6.69535035785101   -0.73096186493522   -1.87703573822837
H         0.59970917393145    0.06105551501456    3.29103711771654
H        -0.05547165483150    1.28317245645761    2.07496192273721
H         1.62728939025637    1.31445093521120    2.73973410438900
