30
 energy: -57.474921083514 gnorm: 0.134403835839 xtb: 6.4.1 (79825abcba525fcdf90b791dcacef51065a7a4e7)
C         1.14322807298251    2.21605671291259   -0.14095340408387
C         2.06151593952164    1.00068794649770   -0.14786573264495
N         3.35012006978609    1.26730630008687    0.50654972484521
C         4.49206466505073    1.55604942448558   -0.32615777950638
C         4.39406759169989    0.21342697278069    0.38698947055122
S         4.23150106157776   -1.01310933931928   -1.02125781797554
O         2.89555968012522   -1.18697201525164   -1.55042815225863
O         5.20191736307776   -2.07404135590035   -0.83894840087087
C         5.15963382141688    0.05303896885985   -2.14868107555076
C         4.91977798368671   -0.26395143332730   -3.60942304677195
O         6.51778915451467    0.08872323274784   -1.65539918386170
C         4.59091559553948    1.42390620286407   -1.79466606476096
O         4.15104817886558    2.24169977845675   -2.58695078530101
S         1.29237675265882   -0.29860143965250    0.94340884496209
C         0.89261079166958    0.51025997845833    2.47497062339905
O         0.08219605937519   -0.78170177078291    0.30622250997614
O         2.30394296990275   -1.29767859058721    1.25483839053271
H         1.10345199387444    2.77499351714954   -1.07759700770284
H         1.33561614852674    2.91618584075163    0.67538522252692
H         0.18070271675751    1.72667395273133    0.04638807221193
H         2.01072422094398    0.53451053967222   -1.12572843374840
H         5.09014087829219    2.39330647829098    0.02334841237871
H         4.89650162730170   -0.07003646665075    1.30260116552795
H         3.89892571898609   -0.65190506550160   -3.68803134247288
H         5.55723009147682   -0.98105192911349   -4.14032945343207
H         4.75305483363077    0.70323037539365   -4.09286629398969
H         6.72521541665986   -0.85212498182165   -1.46125226324476
H         0.79539258429179   -0.29492137225573    3.20419571595698
H         0.07705279901461    1.22868359262776    2.38643049463247
H         1.81750191556874    1.05669779583937    2.67654989130156
