30
 energy: -57.465299935432 gnorm: 0.133071851595 xtb: 6.4.1 (79825abcba525fcdf90b791dcacef51065a7a4e7)
C         0.88885814555619    1.58244596908978   -0.66861387108487
C         1.87556716387054    0.52723846126173   -0.18553625858771
N         3.16676297233783    0.87932395388520    0.42166632964948
C         4.18857696830352    1.59194425757152   -0.30557498475743
C         4.49313431184521    0.21926754589780    0.28078713646368
S         4.59007713145775   -0.95610265597305   -1.17629445870421
O         3.25784688024418   -1.43495017088914   -1.47771849316473
O         5.71445787355702   -1.82033380797595   -0.87730663453730
C         5.01051845254724    0.37038535910939   -2.33078329814897
C         4.94910743838528    0.17551090143996   -3.83079445891501
O         6.30666792774812    0.71109934871996   -1.78939913085244
C         4.19349393437077    1.53642734772226   -1.78227530863518
O         3.68429071071106    2.39596908652708   -2.48362028403886
S         1.23517342087804   -0.49594670717040    1.23347612822168
C         1.39659233029132    0.65474518192972    2.57869105953555
O        -0.19728610490918   -0.63120240253354    1.04991341295254
O         2.13565190513933   -1.61591610385643    1.46416374806936
H         1.32712192968007    2.23937254189064   -1.42205004755649
H         0.62551104927407    2.25195010176382    0.15358759706076
H         0.00654742501605    0.98897077169413   -0.93387291934075
H         2.09547570285150   -0.22885011482239   -0.93124860402811
H         4.55760393523919    2.46360138127836    0.22816857298276
H         5.06778284079828   -0.03545036183618    1.16171520611850
H         4.04154020166545   -0.37178885849488   -4.10576957455842
H         5.81139802717059   -0.48115194232882   -3.99719389688100
H         4.93082589469942    1.13394184323657   -4.35808047957981
H         6.77104451643722   -0.09147406163591   -1.46360111271773
H         2.29599881421146    1.26519319425700    2.48947881917412
H         1.38121966473306    0.20399096762107    3.57151078256650
H         0.53455751140978    1.32571917837026    2.54205845605000
