30
 energy: -57.475816737544 gnorm: 0.120543637624 xtb: 6.4.1 (79825abcba525fcdf90b791dcacef51065a7a4e7)
C         0.62328866159250    1.85971144394829   -0.15274366579138
C         1.87128128798861    0.98884639889373   -0.22004923712220
N         3.11596139290640    1.48581423451783    0.38297661576016
C         4.26477288680822    1.82252404552214   -0.42180292088833
C         4.21721321338160    0.48743701656955    0.31038403712154
S         4.26626271024642   -0.85987217581955   -0.99204904214150
O         2.98124954100005   -1.14298471761515   -1.59502273237230
O         5.27094854257923   -1.82376427513384   -0.58950755053170
C         5.12627588750731    0.30975647104878   -2.06979298451833
C         5.01444637014964   -0.32093267441741   -3.44147305180293
O         6.47628143259595    0.42738786868685   -1.56696678884748
C         4.28857935247894    1.57047501126394   -1.87770632088508
O         3.59780063771040    2.10121363453486   -2.73276536303201
S         1.49857554641368   -0.45786099710828    0.89293608255063
C         1.54700606841670    0.15034179016744    2.56251535712952
O         0.20804390618912   -0.99328079791605    0.50334220493296
O         2.59538060133577   -1.41380320553471    0.93297224559503
H         0.41060976580963    2.40997826645498   -1.07103983191249
H         0.67826311294173    2.55614109663531    0.68723626139967
H        -0.21904477847659    1.16416321696715   -0.06479811201031
H         2.06643174312101    0.66584474091943   -1.23676100987199
H         4.86475702295151    2.64279910228839   -0.03707300190103
H         4.72908271676054    0.30129058487719    1.24551799222335
H         5.49422425588784   -1.30287188950341   -3.37487583512775
H         5.44978587338671    0.29554200453347   -4.23700960670413
H         3.95575383051221   -0.48514845586530   -3.66318889850779
H         7.02664082340894   -0.36611559344581   -1.74964366311381
H         1.81265303014986   -0.74876884839254    3.11980287197456
H         0.67556100222281    0.64733314473310    2.98993759910916
H         2.38087910673661    0.85177515639111    2.64794994691130
