30
 energy: -57.473908276072 gnorm: 0.132045835309 xtb: 6.4.1 (79825abcba525fcdf90b791dcacef51065a7a4e7)
C         0.90558153003285    2.02882432635302   -0.06047271676529
C         1.88292211366800    0.86587566224893   -0.17350989718248
N         3.16406559018681    1.32843340252574    0.37835717858803
C         4.27926338838743    1.76911326875023   -0.42348255012336
C         4.35327725847362    0.43626461618177    0.31058412249583
S         4.42850895735130   -0.85577129717317   -1.04549957857101
O         3.15408575532598   -1.34680005596865   -1.52479605170123
O         5.38165256405915   -1.89696545324197   -0.71693716069841
C         5.09485750995465    0.34354416869384   -2.22312764164612
C         5.00044571922856   -0.13017102150146   -3.65786147672798
O         6.40148343134807    0.58293805494677   -1.65338597298262
C         4.22139155713255    1.54756955114660   -1.88338637761209
O         3.26671578582464    1.89127493498155   -2.56194774299477
S         1.44373250109951   -0.53699442346334    0.97090095920622
C         1.16606171406808    0.28036269795330    2.52479200068103
O         0.23962728210005   -1.19795817616686    0.50486747873112
O         2.61064584537524   -1.34448851864664    1.29443806731121
H         1.23863735565345    2.95331533248317   -0.53553473963543
H         0.79725052604424    2.23203385786645    1.00750340794671
H        -0.04400865838148    1.69261588886179   -0.49208566405737
H         1.87736340575380    0.44787103299310   -1.17418859935949
H         4.71103468881064    2.71834786585032   -0.11790713498575
H         5.02187724758666    0.36000265760562    1.15810665079432
H         4.58253451086796    0.62306835894101   -4.33373667888443
H         4.20014687433808   -0.87978180643612   -3.66459594652929
H         5.95946825449616   -0.39143800657113   -4.11499381267138
H         6.92453910470598   -0.23710064835784   -1.79432330489184
H         0.75905013031299   -0.42749604066903    3.24785161085053
H         0.52440433243431    1.15519661300050    2.41502812315984
H         2.19317447512943    0.58449656215512    2.74203391478319
