30
 energy: -57.467005574516 gnorm: 0.135975716254 xtb: 6.4.1 (79825abcba525fcdf90b791dcacef51065a7a4e7)
C         0.91160446572050    1.67057048379907   -0.46771451769495
C         1.96356986975382    0.58706665038059   -0.26819044470110
N         3.14054151180729    1.12886093259473    0.42538165234251
C         4.31580867724292    1.69880076752486   -0.18676825152366
C         4.36886424086044    0.28940379443659    0.38908134762527
S         4.55892438831432   -0.87689449712598   -1.06611796524731
O         3.36795706613387   -1.60381675788411   -1.45104615870225
O         5.78151509595875   -1.61446638155002   -0.81756023967917
C         4.94622022571121    0.42341409902690   -2.26126871947947
C         4.33339979424882    0.06308844314422   -3.59783049686483
O         6.38832836073419    0.40573281480897   -2.16536357009129
C         4.33072937038145    1.68553329882800   -1.66438501455132
O         4.05532690120299    2.65285313182580   -2.35607176909850
S         1.37459462941485   -0.52920989961127    1.10208070463511
C         1.00358567402192    0.58293368727019    2.43820947701060
O         0.26416989414116   -1.29386337479285    0.56711188631613
O         2.42970067101315   -1.39780397611150    1.60278550690603
H         0.85067324702518    2.17824461082706   -1.43200083106485
H         1.01132887334153    2.45258424769520    0.28866649569468
H        -0.09553077204541    1.26493425414972   -0.31876742578336
H         2.28806532404026    0.06642433762297   -1.16247837754172
H         4.69321312837610    2.62612128068666    0.23571446414677
H         4.70655672103259   -0.05417760454754    1.35812823524450
H         4.84416878257804    0.72800752819877   -4.30197840892158
H         3.25501030636518    0.26177807762875   -3.59162849068091
H         4.51156948321095   -1.01033988954906   -3.71168044063303
H         6.61113673724380   -0.54291154821283   -2.03751857073837
H         1.39979233377168    0.11350090826121    3.33942575054775
H        -0.08177769884706    0.68823904515665    2.44016228531118
H         1.60347537139259    1.44411323713765    2.13299772364903
