30
 energy: -57.471143921061 gnorm: 0.133684714109 xtb: 6.4.1 (79825abcba525fcdf90b791dcacef51065a7a4e7)
C         0.62387257401440    1.21372487101285   -0.33822357999413
C         1.88862446343820    0.40112830165717   -0.09223365517528
N         3.05373529602703    1.19720337483426    0.31840853728008
C         3.99666461746172    1.81936393957802   -0.57859312509773
C         4.42593112482940    0.62385649062255    0.26242367813092
S         4.67567734493723   -0.64433410093369   -1.09525788626832
O         3.48061997547832   -1.40114151449535   -1.40196500356887
O         5.94222602914258   -1.32415679903958   -0.91028008962665
C         4.98745454541363    0.53687254849298   -2.42819886997947
C         4.73076333792286   -0.09096239795710   -3.78160706905680
O         6.33378049799366    0.97472440948816   -2.13685975471958
C         3.96300144072757    1.59864473407212   -2.03938058412598
O         3.23096765077394    2.21968179557245   -2.79331969950847
S         1.56856252766302   -0.66303173695136    1.40300276211547
C         0.71514879998764    0.33793912076474    2.59861701932788
O         0.74411391831312   -1.73905355413338    0.88687176451333
O         2.90726612464933   -0.98221103017553    1.87671890807571
H         0.57579054113125    1.58510906689379   -1.36343362346308
H         0.80330887554943    2.11839414558501    0.24742037676127
H        -0.27195791249352    0.63682064229446   -0.08187102729939
H         2.05969698743815   -0.30576332985643   -0.89669310384815
H         4.13645290120070    2.83734245112291   -0.22499983726322
H         4.97113630027422    0.56129146015954    1.19514729376047
H         4.35405907877932   -1.11769122016097   -3.72918133719520
H         5.57619722670727   -0.08335394471504   -4.47990755855688
H         3.84728785244657    0.45698634877134   -4.12245581906233
H         6.87810003414791    0.16020442212319   -2.05819924142950
H        -0.34395221166533    0.33852926318758    2.33815143313445
H         1.14675996408447    1.32576035851664    2.76301801698286
H         0.79934243325954   -0.04243971100074    3.61982975756089
