30
 energy: -57.472971077882 gnorm: 0.125920727573 xtb: 6.4.1 (79825abcba525fcdf90b791dcacef51065a7a4e7)
C         0.83155748112999    1.89012277997602   -0.24743661871130
C         1.86399340200952    0.77060372182638   -0.28171158464913
N         3.11927525749650    1.22415941063493    0.33343086203426
C         4.22209614709400    1.84137907246482   -0.36200986394561
C         4.40476891615396    0.47568623275572    0.28786027196578
S         4.39252137053939   -0.87358068010409   -1.01341157095634
O         3.12873118043844   -1.27192699604972   -1.59577178459311
O         5.36330208917181   -1.84070735995106   -0.54142423379193
C         5.06116983203571    0.33813504600081   -2.17695790333035
C         4.89403292071524   -0.14953827298194   -3.60034148903546
O         6.37330982627130    0.45852752838935   -1.58283621104017
C         4.22836002157253    1.56383234394459   -1.81345002882343
O         3.49122691422680    2.12766969185388   -2.60636046937786
S         1.46145579614741   -0.52804892035651    0.99189470486310
C         1.46957075939012    0.33701049502252    2.54474931961342
O         0.11611516229204   -0.99739080513661    0.72040540375834
O         2.58607304133856   -1.45185557562325    1.00696266864848
H         0.71942834068151    2.29008462734898   -1.25676872710244
H         1.06279200542593    2.69957559966148    0.44892495977348
H        -0.11063254329616    1.35242307353621   -0.09185911664943
H         1.97261477833386    0.30513322745453   -1.25518744416556
H         4.63537924327145    2.79692464985800   -0.05059562691970
H         4.81634824397511    0.32651345089350    1.27755022935411
H         3.91882952582913    0.09298168981810   -4.03507018311268
H         5.00745966468020   -1.23986773060829   -3.57284656754228
H         5.67297748168308    0.36745398415877   -4.16860112168706
H         6.84749837415894   -0.39808553572221   -1.66811999269716
H         2.34910073746975    0.98061143493812    2.50300640755647
H         1.35346840004039   -0.38657691765825    3.35224432354622
H         0.56983121638208    0.95759025136307    2.54601473602488
