30
 energy: -57.474869658356 gnorm: 0.136144664546 xtb: 6.4.1 (79825abcba525fcdf90b791dcacef51065a7a4e7)
C         0.53953946625889    1.31602979932243   -0.24108072722714
C         1.77679905942972    0.43568100210233   -0.12026551353790
N         2.93507841145872    1.27272591672448    0.22264887921391
C         3.83267669163714    1.91593135398935   -0.70547607274660
C         4.35530508678028    0.82804998787184    0.22414275205377
S         4.60176232632691   -0.55099708238818   -1.02143649538001
O         3.49174526559207   -1.46536251094799   -1.18510332986530
O         5.87726366599449   -1.15367167209635   -0.68917013439643
C         4.92196589475614    0.51170225309427   -2.44878565930938
C         4.99347838682363   -0.22561509984024   -3.76902424619014
O         6.21179215395881    1.05158457948758   -2.08264143337290
C         3.90576964792601    1.60974782512832   -2.14931089513714
O         3.12995821752612    2.05405368510030   -2.98039072221243
S         1.58716525135515   -0.74852413548386    1.30532398512836
C         1.12898059083006    0.13280966514821    2.77945716984413
O         0.53334874037304   -1.69555460054998    0.99462521653356
O         2.97205653244009   -1.11446467173317    1.56334218406981
H         0.54732355054708    1.72738478447590   -1.25203088109966
H         0.46902891488967    2.10769779625884    0.50851434092513
H        -0.34900070431015    0.67533219796110   -0.20867202771354
H         1.92288382209056   -0.28487487631224   -0.91749515454566
H         3.91945597919817    2.98204197145809   -0.51383415131547
H         5.13918867299950    0.95182767533590    0.95990211821169
H         4.04685857258724   -0.23836109156858   -4.31909251350419
H         5.23451351187541   -1.25395354921452   -3.47430060387080
H         5.68955438676140    0.19561886556058   -4.50045762146699
H         6.88736591876700    0.34173255335331   -2.15763632166476
H         0.06916535269449    0.03717842427466    3.01858882815549
H         1.35988740368045    1.19713575635788    2.72469679478419
H         1.77657241989013   -0.26141901015976    3.56676946822718
