30
 energy: -57.473008509323 gnorm: 0.140233624962 xtb: 6.4.1 (79825abcba525fcdf90b791dcacef51065a7a4e7)
C         0.85058494671431    1.89886406160247   -0.25984425689662
C         1.86068513079174    0.76646161058444   -0.12648779860023
N         3.17141774597097    1.10945643814564    0.44288033471773
C         4.21511377267303    1.65177211884010   -0.39222693425320
C         4.42695220019309    0.32038597905912    0.31724674933559
S         4.57702840079133   -0.89600379101513   -1.10115117118122
O         3.29239964216341   -1.27416203911505   -1.65043628887139
O         5.50054275771783   -1.97350735704591   -0.80682385749606
C         5.14700299744387    0.34089154695562   -2.29043865548734
C         5.16458934453665   -0.22761860157578   -3.69338832433143
O         6.44325365018629    0.77639188529754   -1.82218658647883
C         4.14552073203359    1.40328612034206   -1.84727382515452
O         3.37497867170641    1.96102187720304   -2.61224474605881
S         1.24872571717314   -0.42937596994721    1.16428187645441
C         1.25804579404438    0.55846351691509    2.64206311307713
O        -0.04362463385303   -0.88973426739384    0.69329305036705
O         2.29048842274016   -1.44172263971076    1.25535554552242
H         1.03111674118515    2.46341003981157   -1.17635385115144
H         0.84712882507542    2.59725144418227    0.58030206212829
H        -0.10725488107865    1.37379877046503   -0.34870751667751
H         1.78929438429584    0.05966888406050   -0.94591689604042
H         4.73795790808499    2.49485916233582    0.05126757201612
H         4.91043921236500    0.19704867869020    1.27754070946602
H         5.80708368842002    0.46701289975987   -4.24431003090945
H         4.13623982846903   -0.25652783102866   -4.07299529578811
H         5.54980527068461   -1.25127233789605   -3.71977680805965
H         6.92935260762511   -0.07104544700396   -1.71508002593710
H         1.91525999799603    0.18401065663726    3.42780618084468
H         0.21025023868126    0.67325402448555    2.92144510352171
H         1.62584024401487    1.53297506031265    2.31084328441550
