30
 energy: -57.472581975461 gnorm: 0.123792276479 xtb: 6.4.1 (79825abcba525fcdf90b791dcacef51065a7a4e7)
C         0.59583312809037    1.71824814594682   -0.12065450435447
C         1.77837339488480    0.76193551498166   -0.20717759890271
N         3.00723780052378    1.39843002689442    0.28740583777131
C         4.13601699343858    1.84055080376710   -0.49438583325823
C         4.19727537580933    0.50615422103174    0.23804180042770
S         4.31517830589396   -0.86895968780098   -1.03047720135005
O         3.12222461875514   -1.41084488622878   -1.64546562255340
O         5.35340862741068   -1.81054409240445   -0.66167120706175
C         5.10875751479875    0.31776166722079   -2.14003130477888
C         5.05392190681602   -0.02551391124269   -3.61344088094462
O         6.42457349358115    0.32433067477027   -1.54189130347338
C         4.31804173370155    1.60760703788550   -1.94226509648822
O         3.80010687970999    2.25843470844320   -2.83565835953584
S         1.50641255820548   -0.56054920245122    1.07644214793397
C         1.50867385590762    0.37908866036944    2.58535787559496
O         0.14792737319597   -0.99645266322697    0.81483969775086
O         2.63701220713605   -1.47571129254991    1.02513414239100
H         0.33026476092255    2.31550963493809   -0.99475169121380
H         0.67203634966382    2.39756327128871    0.73159355656063
H        -0.31268228755809    1.10766368048640   -0.06742171574334
H         1.81823193555029    0.25731373424319   -1.16628382215606
H         4.64347688053780    2.71548684275676   -0.09711939055507
H         4.70816951744183    0.35647718645305    1.18023092664518
H         4.10343294247168   -0.46035105384648   -3.93949918735022
H         5.86326285050384   -0.70738830195570   -3.90058975392928
H         5.20446136905146    0.92175961167056   -4.13971588144950
H         6.91286271723731   -0.51987930007439   -1.42024757826136
H         1.43525137633477   -0.19796536892411    3.50793871734523
H         0.72853193567330    1.13935966772446    2.53562596836084
H         2.49052708974927    0.85694914838107    2.53775890860570
