30
 energy: -57.475898008684 gnorm: 0.132251019729 xtb: 6.4.1 (79825abcba525fcdf90b791dcacef51065a7a4e7)
C         0.44133355701986    1.23353607097557   -0.45378955606367
C         1.71493025957554    0.42038667080552   -0.26101749966829
N         2.81435746183778    1.26950634195623    0.21867135613463
C         3.84393657777584    1.88327478970027   -0.58386623367811
C         4.16456672666373    0.64407587317933    0.24220845986937
S         4.62833988212680   -0.66330652706737   -1.01860300387813
O         3.63684234904281   -1.58267491116791   -1.53501683136544
O         5.88766050666341   -1.18505795596045   -0.52625326312150
C         5.04822642775704    0.51517081158998   -2.32400420213753
C         5.01170017219340   -0.07918280899426   -3.71583409722551
O         6.36334949775397    0.96194395274198   -1.92396498528426
C         3.97380576643303    1.55463287914279   -2.01874554882783
O         3.22785737485866    2.08963518043883   -2.82330644385988
S         1.48454261922873   -0.67799110610294    1.22595794470617
C         1.54101195193721    0.40781309644331    2.63222660624160
O         0.23251246141946   -1.39856041895400    1.35683963597629
O         2.72900183745788   -1.42556983858597    1.33015497628932
H         0.53577834694725    1.91774373232739   -1.29891309324416
H         0.21111038112231    1.72594987434991    0.49390694744934
H        -0.37341968028609    0.56984228769010   -0.76481223190453
H         1.91824393390089   -0.23279539331084   -1.10252408272520
H         3.98703951050735    2.91973719280908   -0.29041012764494
H         4.74578401970330    0.72213798233294    1.15172985089407
H         5.95043119146562   -0.56072187397696   -4.00863237708008
H         4.63039614495253    0.72660255887620   -4.35439271037382
H         4.23985707412186   -0.85381624072344   -3.68183540514394
H         6.97105689316799    0.23369032435917   -1.66656953526060
H         1.62351523690894   -0.10788498352418    3.58971619941265
H         0.65075557459508    1.03728991534658    2.61464252409615
H         2.35455386024351    1.12691053515630    2.50692490055623
