30
 energy: -57.471424457517 gnorm: 0.119399626817 xtb: 6.4.1 (79825abcba525fcdf90b791dcacef51065a7a4e7)
C         0.47378597304024    1.53352236091644    0.03266305260271
C         1.67628311762356    0.60936851899272   -0.11003199066929
N         2.86546185334235    1.42166813532596    0.18300223643165
C         3.79620570617341    1.97005766924800   -0.77292467438653
C         4.25485054893859    0.88857919126933    0.19705794014450
S         4.72341451377511   -0.53834102112307   -0.92469351599479
O         3.63966225245593   -1.38440766649615   -1.37706625716821
O         6.02545036798711   -0.96912890580115   -0.45602978868310
C         5.02882836082942    0.50225950556994   -2.37143425408057
C         4.93176989707360   -0.31796585429908   -3.64013077540939
O         6.32051212698146    1.07416319739419   -2.06538602339685
C         3.87150308711907    1.47448597807035   -2.16306465260966
O         2.95193862146082    1.54259051759054   -2.96290692684764
S         1.51976628083399   -0.77595514613354    1.12568196598656
C         1.38435041524444    0.00266188323777    2.71790342244374
O         0.29776882476976   -1.52790700173200    0.91303133019924
O         2.81232481401519   -1.44505705561131    1.12787341609942
H         0.47676172050051    2.07417910867386   -0.91547995280198
H         0.67487393268799    2.31020244196057    0.77423867993878
H        -0.43287551709404    0.97637262438060    0.29457237489596
H         1.60700134977161    0.22018730383005   -1.11991050335683
H         4.06815161986527    3.02074713017083   -0.71864456298842
H         4.97271934401432    1.06291543210738    0.98788515120393
H         4.04101611000416   -0.94272745922184   -3.76283879598678
H         5.81372060169016   -0.96359948868433   -3.72822213375280
H         5.07680907319283    0.41114526536103   -4.44282327278294
H         6.81727502161315    0.46324023385677   -1.47724165113787
H         0.42278004976447    0.48583627525209    2.89528031396899
H         2.25756847094599    0.63820606470738    2.86850389827563
H         1.51078367405340   -0.85347195825357    3.38551225766786
