30
 energy: -57.466020837536 gnorm: 0.140869208950 xtb: 6.4.1 (79825abcba525fcdf90b791dcacef51065a7a4e7)
C         0.64580797864804    1.31603196553399   -0.34680971395853
C         1.81932562906655    0.36719286988953   -0.13948792357316
N         3.01179803128822    1.08669294888505    0.32973988077353
C         3.84713617129720    1.80301924327705   -0.60294370065301
C         4.43817166632815    0.67369319909414    0.23139267221008
S         4.68931168139336   -0.67364322998560   -1.04751032806602
O         3.51810740572927   -1.51406245444777   -1.17775976874467
O         5.97000593059080   -1.32017126292074   -0.84173130088550
C         4.97110052979255    0.50132013148630   -2.39259098766285
C         4.85874350024640    0.02917220761619   -3.82654812797164
O         6.26258920865550    1.04752533274043   -2.04201550419021
C         3.91874384412190    1.55418615374313   -2.05783350996501
O         3.30590112691523    2.16043898302323   -2.92204764291103
S         1.55589121905895   -0.70428186020840    1.36156251061251
C         0.76729605435124    0.34894452349005    2.55679593972864
O         0.64923321192030   -1.77600892856293    0.99645702521835
O         2.85849486445847   -1.02916802595229    1.92377461489776
H         0.71699440194337    1.56365071345737   -1.40742801393371
H         0.74659540737264    2.17920015760575    0.31529698999318
H        -0.32620880581888    0.81030975779427   -0.32499705957814
H         1.83175268090479   -0.22830060377252   -1.04577139571087
H         4.04711236184214    2.80635171780209   -0.23663425496375
H         4.87806489201898    0.86715351608617    1.20103350263052
H         3.97578924349664    0.40075789426652   -4.35677684210847
H         4.79029718715401   -1.06155580758265   -3.91636695901811
H         5.74407727975623    0.33537272146617   -4.39168525951861
H         6.81765610751591    0.32663932822625   -2.41368491399659
H         1.27272138113493    1.31314248469755    2.62316727075891
H         0.98310324308499   -0.05927252375800    3.54466879726362
H        -0.31246232548775    0.42807243159687    2.40675362615615
