30
 energy: -57.473208712610 gnorm: 0.127789598396 xtb: 6.4.1 (79825abcba525fcdf90b791dcacef51065a7a4e7)
C         0.93234554368024    1.92963266504454   -0.25253907596533
C         1.95353844686294    0.80105670119959   -0.19006532091969
N         3.17068380252116    1.27708693842392    0.48209384812332
C         4.30401069007270    1.72521792222849   -0.28963188943791
C         4.32371729647610    0.34486165392820    0.35460851361479
S         4.36996855545057   -0.93237850345997   -1.01670399448784
O         3.19471566780859   -1.52581573958887   -1.61803730703884
O         5.55386200061434   -1.69372817610190   -0.67135742964324
C         4.95028660722596    0.32730016163639   -2.17671539692853
C         4.78052224505335   -0.12088211806976   -3.61271454434307
O         6.30134997874929    0.49692950098276   -1.69190620350010
C         4.22920510864709    1.60596588417428   -1.76066316649350
O         3.56996638491839    2.21677569896111   -2.58667795604976
S         1.40174786773335   -0.52385789706661    0.99767903717976
C         1.30044613302070    0.39402092517642    2.51655609780637
O         0.15028258744126   -1.00613053471745    0.44525037982346
O         2.51424364969049   -1.45328497578791    1.12778733077558
H         0.94580740986403    2.32650833290452   -1.26920136587859
H         1.14659034757208    2.70532410023108    0.48638222085589
H        -0.11916549218481    1.68372394456032   -0.06572147531107
H         2.15856333272014    0.40187132739515   -1.17735071991716
H         4.90650673856671    2.49559965521517    0.18403426141902
H         4.95566148342632    0.18581444930900    1.21860318923953
H         5.53852585264162   -0.87574446551591   -3.84603835018471
H         5.00125160563193    0.67065549842179   -4.33879076221299
H         3.73728676425443   -0.43579720469830   -3.70988888696138
H         6.59311807940573   -0.39076121733993   -1.38729069523482
H         1.55961610390243   -0.30311332500009    3.31428561735764
H         0.41855305525828    1.02528706562232    2.63002125717348
H         2.15454077989618    1.04641591414407    2.31767122392516
