30
 energy: -57.473307475858 gnorm: 0.132087311579 xtb: 6.4.1 (79825abcba525fcdf90b791dcacef51065a7a4e7)
C         1.15033712429212    2.26749889761861   -0.31198316103427
C         2.06710910443009    1.05540977958268   -0.20810466522216
N         3.33961313112496    1.23553148475366    0.50473136270972
C         4.57405757393015    1.57140941034705   -0.16171051197746
C         4.39080555953829    0.18404240581070    0.44032684871505
S         4.22534238315907   -1.03850055672280   -0.97105199785609
O         2.85742856470877   -1.29723843170707   -1.36710167438186
O         4.99376698730992   -2.23303500413029   -0.68272518701420
C         5.03321143834965    0.07722201372998   -2.14224650357403
C         4.63194420781636   -0.14183096846573   -3.58543091465701
O         6.44940106115534    0.05873326247947   -1.85371328423457
C         4.66110774482228    1.46661876283926   -1.63316935623957
O         4.32949271217821    2.33288223305263   -2.42664513953379
S         1.33654257518595   -0.29715175389414    0.84425365681625
C         0.99270368635943    0.54144266805456    2.37339894525317
O         0.15232173672322   -0.95915050577566    0.33111788105179
O         2.48023916031155   -1.14974884653433    1.13312395076251
H         1.45562869278934    2.90617322430207   -1.14275743234805
H         1.06289222318778    2.77362537758541    0.65227411552520
H         0.16242528180362    1.87263593010848   -0.57496757598548
H         2.36004288959141    0.74026082626386   -1.20358824416778
H         5.12574299891901    2.35072959198212    0.35708845363099
H         4.83695132146883   -0.34662028008998    1.27128249807568
H         5.33444980147131   -0.88770915809991   -3.97140791959195
H         4.70315493600903    0.74831543409838   -4.22183356836875
H         3.62889187065077   -0.57814030951077   -3.60722084660535
H         6.68239777832807   -0.83739423369844   -1.52419532683342
H         0.63092451779023   -0.20965037827473    3.07661490914963
H         0.12220071183734    1.18882404457587    2.26281590983229
H         1.88517966757396    1.07883538404066    2.70407669215517
