30
 energy: -57.475285170055 gnorm: 0.130007965776 xtb: 6.4.1 (79825abcba525fcdf90b791dcacef51065a7a4e7)
C         0.81073673897744    1.71162722809110   -0.46090483334472
C         1.71552640939763    0.50284527737433   -0.25935232958646
N         3.01492090695354    0.89159897952740    0.30658963172465
C         4.16078855333899    1.50458376384650   -0.31954808865942
C         4.28400832427334    0.11444642357063    0.29131369679465
S         4.64149477654513   -0.90772118188772   -1.23883551950389
O         3.44410411469550   -1.45508965047836   -1.84019414328525
O         5.74793347032302   -1.78231004858067   -0.90505567157687
C         5.20297018702234    0.44633352165121   -2.29735668582494
C         5.06943702843741    0.09583311545502   -3.76401929542313
O         6.55992419989110    0.65321969806661   -1.84452093162215
C         4.22219990707366    1.50217272891724   -1.79602124589605
O         3.46591521970581    2.17161977964640   -2.48148373077365
S         1.20501392383144   -0.39239513890648    1.29259154660766
C         1.30192614900578    0.69305606530104    2.69692583821947
O        -0.15852434001958   -0.84058793282636    1.08326813953734
O         2.21474148611348   -1.39823435070193    1.58779902894237
H         1.34133134450199    2.50147026539072   -0.99561136694921
H         0.35474530333599    2.21151779503879    0.39687367124865
H         0.01954019697749    1.43038290262247   -1.16514700928594
H         1.78041833803181   -0.19133917147806   -1.09002288899492
H         4.49204132266489    2.40788832677180    0.18558725306093
H         4.86306706027625   -0.18460951995329    1.15525405580946
H         4.01337511855439   -0.15157255702438   -3.91351948421717
H         5.81302298804462   -0.68572001022992   -3.96072861178580
H         5.25746370171952    0.90282943718828   -4.47841242199944
H         7.02948046925071   -0.20688791846889   -1.76938211740855
H         2.30871978324198    1.07796240497239    2.86351308492375
H         1.09125286488404    0.01628990632005    3.52560612425579
H         0.63903576202746    1.56049455567075    2.74964093034489
