30
 energy: -57.473566265957 gnorm: 0.131563723100 xtb: 6.4.1 (79825abcba525fcdf90b791dcacef51065a7a4e7)
C         0.18811421033714    0.12784648695110   -0.28508178595623
C         1.67196959108575   -0.11453222067932   -0.04044464246863
N         2.56279221392369    1.05120134338450    0.04526480380079
C         3.24183510210505    1.79996686435033   -0.98384276755579
C         4.04961496752450    0.99084771534175    0.02295162252190
S         4.78638168249524   -0.29478961181209   -1.12521702986936
O         3.99291430374263   -1.48731161957816   -1.33327858861762
O         6.17432215603793   -0.41632136236254   -0.72600213414913
C         4.76826871540409    0.73480233509613   -2.61141963407165
C         5.01772876798579    0.07523495861439   -3.95101711414211
O         5.76239375859168    1.76020779934999   -2.38905656455165
C         3.45942098344717    1.49347787533228   -2.41299324110650
O         2.60047188761043    1.75977282074588   -3.23838899228684
S         1.91348985695760   -0.80919994763895    1.67119576724200
C         1.64234080679927    0.45477994274265    2.89127122773636
O         0.94609651880454   -1.86297744558712    1.91126405161276
O         3.31518434842231   -1.17186345742370    1.81998239213351
H        -0.17058221164013    0.20195906111723   -1.31325392216642
H        -0.19460632780816    1.01127510668104    0.23133044606485
H        -0.32085490972439   -0.75288171450747    0.12273637261641
H         1.99100794876542   -1.01780716273544   -0.54880031647368
H         3.10010960195013    2.87314316062278   -0.88868100528877
H         4.72327823022972    1.24416150824652    0.83112632979638
H         5.94540595984361   -0.48974641384607   -3.81303991640135
H         5.33282408472263    0.83212767975437   -4.67921233016261
H         4.21581729625109   -0.61623639660822   -4.22626243903591
H         6.53541249399487    1.31743593610687   -1.97395518475393
H         0.67692278368057    0.19539497500870    3.32741925536284
H         1.56143208776560    1.43125689585425    2.41267617747575
H         2.47310439981527    0.42431299429916    3.60088781293766
