30
 energy: -57.470328531025 gnorm: 0.131846650728 xtb: 6.4.1 (79825abcba525fcdf90b791dcacef51065a7a4e7)
C         0.55786652346998    1.96446165221304    0.09218013171263
C         1.58155328735512    0.85743478638108   -0.12456511976985
N         2.93412193465148    1.32116072036267    0.21508483558255
C         4.00960115432801    1.71453895224210   -0.66207505332789
C         4.10270806513721    0.40547979940885    0.11156071426155
S         4.24649977248808   -0.92785496322532   -1.19821872596876
O         2.96236070433271   -1.25956989712083   -1.77782280387471
O         5.25717118128303   -1.93334742930507   -0.93735582268003
C         5.19513381097829    0.27370115188464   -2.16026976734947
C         5.63028795435704   -0.12025279940063   -3.55569873416973
O         6.25524372519708    0.44807867589930   -1.19334383925860
C         4.25117168782514    1.47089782928754   -2.09944517107575
O         3.84448376512221    2.15533522925972   -3.02472084247726
S         1.45063855036910   -0.46634493936322    1.17968821216521
C         1.62495405855334    0.40744511724404    2.71782219209544
O         0.17780249027595   -1.13479143962385    0.98734137112695
O         2.59794255560952   -1.32380073851111    0.92109045435955
H         0.85255997121324    2.82988894474204   -0.50404558667978
H         0.47037284498660    2.29060974340317    1.13120612125218
H        -0.42714070710082    1.55493945414187   -0.15901641398674
H         1.46783382547082    0.34365643266396   -1.07283527020538
H         4.50330097970696    2.59455322391058   -0.25873327307852
H         4.71015432117774    0.11717895182692    0.95951594793092
H         5.77622089769469   -1.20362138132488   -3.61768843369674
H         6.59618981364701    0.37773464884644   -3.70226620216134
H         4.98509688645597    0.19854335101717   -4.37974493039824
H         6.82296284405131   -0.35077204926751   -1.26714468437521
H         1.70657134526315   -0.38914752961818    3.45830608547405
H         0.68055857144108    0.89008762515165    2.97135731086502
H         2.49791098556285    1.06234869637781    2.65699796919569
