30
 energy: -57.471780812276 gnorm: 0.138931574302 xtb: 6.4.1 (79825abcba525fcdf90b791dcacef51065a7a4e7)
C         0.58691221115899    1.67868904468752   -0.02134972662778
C         1.75421633455028    0.71137256343240   -0.17008283729643
N         3.01232642913523    1.37536281381186    0.19886355456887
C         4.05462153493090    1.88411574576458   -0.65880958948371
C         4.32132105568414    0.66760026475326    0.21856087558637
S         4.42199119707598   -0.68691350960751   -1.07339020700049
O         3.12554498392572   -1.05825119523284   -1.59905586605510
O         5.36328505228846   -1.67077143480294   -0.57689174219330
C         5.08760759119611    0.46036029661102   -2.30217150022990
C         5.35843211869147   -0.22144755469017   -3.62639692452854
O         6.34010579105249    0.81551735772215   -1.67423995822489
C         3.98563162897293    1.49246363716674   -2.08204497265153
O         3.08387705115636    1.69935475266866   -2.87829838898895
S         1.63016378730044   -0.60989586346166    1.13738376338271
C         1.18710532868003    0.17515791597172    2.66942190385969
O         0.58107865149917   -1.55562146811251    0.80730328205586
O         2.95945748753541   -1.17806044953828    1.30643106139366
H         0.80594197944860    2.42152725216587   -0.79044730678068
H         0.48595219896495    2.23226211071498    0.91511525168197
H        -0.40741796547128    1.35686411396242   -0.35117329372316
H         1.60398609801559    0.21621517923029   -1.12316556606229
H         4.42080998398774    2.87331077887578   -0.39756579721919
H         4.89541189736276    0.67748719108416    1.13587118303517
H         4.39232978133452   -0.45304741772320   -4.08665164570046
H         5.81664036588267   -1.16454296399162   -3.30537328953425
H         5.95121167485252    0.37823063573532   -4.32350028770014
H         6.76113820806085   -0.07155400836132   -1.63240529377599
H         0.11165644613579   -0.00355025027521    2.70121365337906
H         1.36829384369128    1.25037503492506    2.68304366447061
H         1.73752614276472   -0.39259480942088    3.42397200216660
