30
 energy: -57.476553896606 gnorm: 0.121193343238 xtb: 6.4.1 (79825abcba525fcdf90b791dcacef51065a7a4e7)
C         0.44774403530187    1.48444242892058   -0.29801108448917
C         1.68715182950245    0.60559380374611   -0.18885528122651
N         2.86249944540839    1.39420857138136    0.20673354454946
C         3.84171002394118    1.95053928544921   -0.69462888611243
C         4.21131187430433    0.76559191960338    0.18861018216969
S         4.61302418207773   -0.67445027668924   -0.94226803046297
O         3.48570913528105   -1.46573769161834   -1.38725548959248
O         5.82534459515759   -1.26764782656873   -0.41414196868945
C         4.98661608966477    0.50660551819096   -2.25935653846656
C         5.17571505215197   -0.09544557018847   -3.63542227663833
O         6.17757136612829    1.19540508222436   -1.81622338564007
C         3.81263064591580    1.46645057498245   -2.09053814429062
O         2.86299753891840    1.53011058436787   -2.85482150803781
S         1.60074173500487   -0.71374001948940    1.12358509072468
C         1.68284228425836    0.21263654530531    2.63845705244406
O         0.27388961956111   -1.29587392950425    1.05640442315580
O         2.81261350387850   -1.51950197416858    1.10068929413702
H         0.44248502500685    2.02175816003135   -1.24804154853091
H         0.38448200511908    2.17506123434302    0.54617272765610
H        -0.45023980927657    0.85874636349630   -0.35437444938508
H         1.82858802644184   -0.07436289845820   -1.02178461489273
H         4.17898810318252    2.96137940230380   -0.48180264933396
H         4.64218018220980    0.64096297950832    1.17347390002756
H         5.87387909221931   -0.93884870949874   -3.64346893885927
H         5.53885304293329    0.73402119366993   -4.25393307712035
H         4.20539816861698   -0.41977412220530   -4.02304421730445
H         6.85390849595924    0.48414721815716   -1.76528831513567
H         0.84893475370544   -0.13648800517650    3.24857827114933
H         1.78364942469294    1.29441537625844    2.54518774272833
H         2.57409877929900   -0.25626468700399    3.06324591157418
