30
 energy: -57.475587691205 gnorm: 0.139573949173 xtb: 6.4.1 (79825abcba525fcdf90b791dcacef51065a7a4e7)
C         0.77580439257931    2.08838244620312    0.32221763413993
C         1.79485581981376    1.03658918374838   -0.09693239573144
N         3.14614085449865    1.42021974143207    0.33515772579295
C         4.18511202127404    1.81184491097369   -0.58570083539713
C         4.32454382935483    0.52000436590659    0.20961310549857
S         4.23195712778916   -0.85188676816819   -1.06448344657386
O         2.92336663132796   -1.09365977911844   -1.63380371964592
O         5.20976689069534   -1.85999490653334   -0.70653468571099
C         5.09831653718218    0.22952263149108   -2.22601731165973
C         5.44856343134779   -0.33375446910393   -3.58683576599865
O         6.27357273308369    0.54746547525852   -1.44699772110207
C         4.11989662337761    1.37763340040777   -1.99671368606126
O         3.37707365164771    1.81404613959353   -2.86143485741921
S         1.53065090300062   -0.50011346191634    0.92255224801769
C         1.29370998142237    0.07390924833842    2.58811762544092
O         0.28631171898256   -1.14402551292533    0.54714988840957
O         2.82463043420948   -1.16626016986822    0.93914332929897
H         0.92358858494213    2.98235385307490   -0.28627943620771
H         0.76132594467774    2.27143141189637    1.39919775065308
H        -0.12629431557123    1.60631643395586   -0.07132735326134
H         1.75386179626133    0.68402932467453   -1.12169464511985
H         4.76162600134943    2.71984689567266   -0.43073916970265
H         4.82759964448940    0.34851387332580    1.15230187477502
H         4.44825664537571   -0.58073879247246   -3.95725675494412
H         6.02693163620133   -1.24868734180366   -3.41125677729409
H         5.93890565684170    0.43144793730707   -4.19592066349445
H         6.79012389841154   -0.28817197996722   -1.47526397086336
H         2.08114071863763    0.80572603494677    2.77233121861470
H         1.40607167492156   -0.72882809077824    3.31756556556567
H         0.32050155566732    0.55414082899281    2.71809866097885
