30
 energy: -57.471390061380 gnorm: 0.134887498746 xtb: 6.4.1 (79825abcba525fcdf90b791dcacef51065a7a4e7)
C         0.50415071062425    1.62712840192817   -0.10004575753984
C         1.79354920688028    0.81794062548112   -0.15561816242349
N         3.00245567236572    1.58922885884708    0.16610398083447
C         3.95204014521286    2.05342000025833   -0.81554145296870
C         4.37525490230783    1.01690455350192    0.21758123344011
S         4.53666503649549   -0.58010480319530   -0.75065815132544
O         3.44260055321303   -1.44302804205432   -1.14228966364059
O         5.73132173896133   -1.29109637540161   -0.34101487536877
C         4.91785903560798    0.32780212228710   -2.26709541857676
C         4.70529005080279   -0.50697431586109   -3.51198238938209
O         6.24438303538988    0.86815187280197   -2.07333648243259
C         3.94983244775795    1.50451074019261   -2.18756320291705
O         3.21477732823399    1.83116392882137   -3.10570067601738
S         1.75610085313971   -0.62079849121337    1.02727472404876
C         0.77663366492690   -0.22651758829168    2.45728790387838
O         1.21042900317200   -1.86414242495430    0.51711028041933
O         3.09293967925641   -0.76367261740598    1.58482173032070
H         0.56446405775461    2.51495967856933   -0.73203598817154
H         0.40403957455080    1.91379034506616    0.94943288097992
H        -0.25977327602218    0.93493118694350   -0.47197388636193
H         1.81740235360380    0.45276486560113   -1.17649735311446
H         4.32406159497541    3.06876238365803   -0.70816827122137
H         5.05946406287410    1.06260513729659    1.05478223009914
H         3.67293158467164   -0.87098936488966   -3.48840967961754
H         5.26102891844116   -1.44494835647911   -3.39451352842086
H         4.95484788887094    0.14038203256426   -4.35791694756423
H         6.73471492520327    0.08429159346889   -1.74009221140653
H        -0.28785629402562   -0.18752332243722    2.22302694317166
H         0.95553662594026    0.74632404633230    2.91628634379056
H         1.00357625199879   -1.04993119134157    3.13929903364317
