30
 energy: -57.472716962360 gnorm: 0.118246487428 xtb: 6.4.1 (79825abcba525fcdf90b791dcacef51065a7a4e7)
C         0.69696378471781    0.98490610936335   -0.70119815852330
C         1.90601516054990    0.23308878117107   -0.15954600900008
N         2.98244495180956    1.12207868395420    0.29962893559205
C         3.87838087587078    1.84740772096435   -0.56755506287154
C         4.39307388804548    0.65350719598744    0.22649134718427
S         4.86974182772800   -0.64038169191666   -1.04339803296538
O         3.81776687152432   -1.60715823877120   -1.27508884141459
O         6.19523070139665   -1.20558117353385   -0.88799519427733
C         4.90507675756886    0.57560992714388   -2.38104584359714
C         4.71065125136245    0.06885822074608   -3.79426283949242
O         6.11450157053223    1.30965856006164   -2.08498752541625
C         3.74597178951359    1.48976554078116   -1.99524901760042
O         2.75371938357753    1.80818047462188   -2.63088397452789
S         1.47045532212033   -0.67658852348694    1.40678186351372
C         1.24648259270557    0.62501907560115    2.59648980024030
O         0.23667412584597   -1.41133170613180    1.20216983375707
O         2.68145227638885   -1.40222189563174    1.76083315167507
H         0.99874685135833    1.39117210035303   -1.66823934649283
H         0.55318532328668    1.72865773043418    0.08605275827481
H        -0.19903894986029    0.37157759140668   -0.84970610410293
H         2.26333642699634   -0.59187162629282   -0.76607583932706
H         4.00961776450792    2.89209762436126   -0.29876307023505
H         4.98676715355176    0.47914193864459    1.11433226028473
H         4.96507439501899   -0.99512222713940   -3.83944139022227
H         5.24781323928773    0.68267880275650   -4.52714837951543
H         3.67017056478665    0.19488446352937   -4.10806526131677
H         6.88243283378131    0.70381639484187   -1.98932724365454
H         0.47581590343615    0.45969066301555    3.35033129072432
H         0.89382681721533    1.52225269809403    2.08686992861631
H         2.16941786725322    0.88453191454905    3.12136659128260
