30
 energy: -57.476262007167 gnorm: 0.128730112236 xtb: 6.4.1 (79825abcba525fcdf90b791dcacef51065a7a4e7)
C         0.71509682396589    1.91584680163122    0.10640913348832
C         1.85921526498172    0.93866121333816   -0.13133630580087
N         3.14606367932614    1.53671999598284    0.25101515718625
C         4.24538492645641    1.89577612429264   -0.61118142241219
C         4.35848050750620    0.67469269888829    0.29268898166357
S         4.21288720709273   -0.73127412697149   -0.93858664017258
O         2.94423476260092   -0.98535498302500   -1.58739533708905
O         5.08354278812731   -1.84144931725638   -0.60693748586073
C         5.15784546444376    0.19987492289050   -2.16708213391662
C         4.94062235594942   -0.30370155456614   -3.57811214765500
O         6.39955950530582    0.30000863040519   -1.43407068493560
C         4.33238815492193    1.47522609655870   -2.02515394018678
O         3.82566493972588    2.08510478991708   -2.95319718015497
S         1.56413886609319   -0.55496376337070    0.94226627917149
C         1.28457534938040    0.00980718587246    2.60438213452031
O         0.41253259593370   -1.27235783388257    0.42935457693827
O         2.83051086273773   -1.27227950670055    0.92923478603837
H         0.83358014821689    2.70985923826113   -0.63304991600730
H         0.79338983118830    2.46521997325446    1.04750533042607
H        -0.27121575673464    1.43813225658751    0.10154214732618
H         1.75116986685592    0.46795389541981   -1.10235504896392
H         4.75017117843417    2.81192944124801   -0.31672739344420
H         4.99214988406900    0.40237524761313    1.12662109381695
H         3.87290023106153   -0.54452091443977   -3.60643406297107
H         5.60401434190215   -1.16637354222677   -3.71282680019480
H         5.11116657916522    0.52727870766253   -4.26901091349191
H         6.63169197344808   -0.63383767374910   -1.23417160769383
H         1.87077873521551    0.92522171079503    2.69337348616942
H         1.68378550922808   -0.63914511918295    3.38450958347019
H         0.21152160814487    0.18760175072906    2.71207076601635
