30
 energy: -57.473561073020 gnorm: 0.141723072715 xtb: 6.4.1 (79825abcba525fcdf90b791dcacef51065a7a4e7)
C         0.89582170877650    1.91450351363943   -0.23749250261104
C         1.86511580885101    0.73939432776038   -0.24048792011493
N         3.10793274515069    1.11060454583124    0.45049296480968
C         4.22634252108153    1.63500658122236   -0.29447274341283
C         4.28408697227948    0.21831277722232    0.26271817530662
S         4.52694927325046   -0.90448705502436   -1.21860489377703
O         3.35922001799604   -1.56531012413898   -1.76147698742056
O         5.65500702382989   -1.68908369393490   -0.75771977964268
C         5.16709825637830    0.40074033523153   -2.29367539223987
C         4.95661202221032   -0.07059065788058   -3.71681399492036
O         6.50610919548666    0.59037380890359   -1.78350370576780
C         4.28059340290674    1.52543231038272   -1.76715745975770
O         3.40546257332621    2.02499038441498   -2.45604968887101
S         1.33368280824778   -0.40116861411164    1.13330366703025
C         1.01404255634438    0.55304684298030    2.59858659898657
O         0.08442028586403   -1.07292204611783    0.82995544509988
O         2.45228530557901   -1.28859005784401    1.41547624286447
H         1.00622345886608    2.40807962255993   -1.20469868936606
H         1.23301593957730    2.55302599568380    0.58238054443844
H        -0.14441480794420    1.61557923805713   -0.06544704224952
H         1.97921903804261    0.25140249789737   -1.20223687812407
H         4.76880697394054    2.48574601418257    0.10904161838290
H         4.91399898596896   -0.13056905396623    1.07057247173683
H         3.89430455218335   -0.00652492813038   -3.97415628239221
H         5.22884918217666   -1.12617308871301   -3.83544191728798
H         5.49711116278943    0.53113306254664   -4.45352552390923
H         6.92860692226140   -0.29428517446521   -1.85270051190966
H         1.75984667511942    1.33135712107978    2.76455933844657
H         1.00982276627066   -0.16199626309128    3.42187405351005
H        -0.03057350369447    0.87026478812579    2.54565132882468
