30
 energy: -57.471040447185 gnorm: 0.141699398755 xtb: 6.4.1 (79825abcba525fcdf90b791dcacef51065a7a4e7)
C         0.30227047176335    0.32231770196450   -0.29289648797204
C         1.73939645362780   -0.14779032508248   -0.10826459996433
N         2.54311473361209    1.06807146079299    0.08031648293716
C         3.20989768143945    1.87923313628005   -0.90873796224514
C         4.02926306016067    1.00573468398090    0.03278096568637
S         4.76370401706110   -0.30742599209642   -1.08533589554195
O         3.76869492124462   -1.34485762377433   -1.25469156596865
O         6.13794308280076   -0.59879314022518   -0.72883424201727
C         4.71792332043306    0.77048691152315   -2.53626447360006
C         4.95208718442691   -0.01179892372609   -3.81101033318675
O         5.65763449239014    1.80679012930323   -2.17266461667916
C         3.34921538736269    1.40219887280076   -2.30042005559249
O         2.53151006152510    1.53532878107249   -3.19686811350711
S         2.08576463732661   -0.81713018540328    1.59544353954931
C         1.56233143771026    0.49394470227264    2.67565251177751
O         1.22028263166737   -1.95914465958966    1.82055130264520
O         3.49317481709184   -1.17325413345061    1.69928017753067
H         0.27008476730973    0.64487308238058   -1.33511327928926
H         0.04961817946981    1.10973697741439    0.42106459726773
H        -0.31073806300304   -0.57734838504899   -0.16692487453387
H         2.01984970943216   -0.80088859870553   -0.92736484045260
H         3.02086153354486    2.94752873360294   -0.84661628257662
H         4.55490427521183    1.27199037376277    0.94049547178394
H         6.00817245172458   -0.29049796547833   -3.88741310123620
H         4.66997465154689    0.46233024465448   -4.75866742984326
H         4.25541249309343   -0.85152044183649   -3.89142661920121
H         6.48860777978851    1.43632815076261   -1.80097205315564
H         0.47215963730556    0.52242954455065    2.69151700949794
H         1.78731760177487    1.48732068522828    2.28617585587040
H         1.91252443831357    0.20349209515818    3.66946045391950
