30
 energy: -57.475448207318 gnorm: 0.127619509585 xtb: 6.4.1 (79825abcba525fcdf90b791dcacef51065a7a4e7)
C         0.79373074565927    1.95408606608351   -0.15938674088693
C         1.85353482484895    0.85996865593927   -0.17138799626848
N         3.13438431661325    1.35395864506189    0.35324901022974
C         4.32623614186710    1.75769786680511   -0.35194296546932
C         4.30521360759744    0.43686072938591    0.40684870387325
S         4.42856459712578   -0.84368368258650   -0.95659185567399
O         3.12068671791257   -1.26660053936065   -1.41000737356125
O         5.48082802392772   -1.75830579699606   -0.56070129758486
C         5.05337734166791    0.28477280169106   -2.22362809626684
C         4.70587183694807   -0.22628563115274   -3.60559772127457
O         6.47926345669621    0.37370657589683   -2.00425200302276
C         4.49780074520179    1.64593458537729   -1.81544030646602
O         3.99754827825905    2.37585013982800   -2.65624677036313
S         1.39881589490309   -0.54272999689202    0.96715290843957
C         1.12158844800518    0.18640506666157    2.56441872845400
O         0.19263880164205   -1.15355833418081    0.44183850006423
O         2.52495544259826   -1.41258630506708    1.27304414533515
H         0.74121035254680    2.50959369249442   -1.09744143739461
H         0.99525207835794    2.68030824098329    0.63155777474026
H        -0.23770260585874    1.60786761450350   -0.02776076055973
H         1.84128070048017    0.31400947625679   -1.10834853407264
H         4.84398174831400    2.60999403979004    0.07977434849544
H         4.96187446116649    0.21373942526548    1.23760116047593
H         5.07605241451059   -1.25147081552253   -3.70946450722149
H         5.00281954756149    0.52604603725920   -4.34604288560048
H         3.61587630016143   -0.31653666750660   -3.63241401624773
H         6.96606343692705   -0.29571311886928   -2.53417378544417
H         0.69365486959486   -0.62212362653952    3.15829735897068
H         0.38274434578163    0.98835999068260    2.57360435429002
H         2.09918600499524    0.57128597901960    2.86578525031173
