30
 energy: -57.474621576109 gnorm: 0.140201658783 xtb: 6.4.1 (79825abcba525fcdf90b791dcacef51065a7a4e7)
C         0.39884214372651    1.72103238017310    0.01252725494985
C         1.54724022958985    0.74200830893204   -0.19511494044647
N         2.80949549053540    1.42527653983220    0.12064124011564
C         3.87977976386296    1.82632046823060   -0.75939671460999
C         4.10409640293350    0.70157833621291    0.24332670017726
S         4.53846800625167   -0.66976824133508   -0.95863406284979
O         3.36764794115078   -1.26795731755803   -1.56389354149617
O         5.63076656785596   -1.46311550484469   -0.43137205355164
C         5.13773165123208    0.39339941541033   -2.29270432061658
C         5.44332662021887   -0.31981307754519   -3.59259681803360
O         6.28557063726330    1.03439056823181   -1.69205275255969
C         3.96208349696638    1.35661016059883   -2.15809199370425
O         3.09443521302481    1.59195605209919   -2.98379379340931
S         1.59941823080229   -0.59306052314694    1.10314422092327
C         1.34808816020235    0.19279054432680    2.67763537534776
O         0.49283909186342   -1.50359898751559    0.87879631854539
O         2.90918372994576   -1.22769621968457    1.11585636524816
H         0.00638373785319    2.16571497947248   -0.90373008917491
H         0.61193173194661    2.40908203688199    0.83397915531307
H        -0.38083599622594    1.04816105798890    0.38721854204998
H         1.54807048412933    0.24692668233822   -1.16000358018153
H         4.21902133149170    2.83627278973442   -0.54547920800147
H         4.74039345038678    0.65043542074455    1.11719562139418
H         4.72990187379433   -0.22796962090355   -4.41807640047394
H         5.49229633661098   -1.40693117025530   -3.45762962982565
H         6.37045929435293    0.08325539646788   -4.01082575346812
H         6.95986902558028    0.32102265459504   -1.74044641991938
H         2.25934440337712    0.77011387308334    2.83840681619636
H         1.22617305260493   -0.52665019381808    3.48797383162941
H         0.42051286635175    0.76092974496976    2.57051860092233
