30
 energy: -57.473714023136 gnorm: 0.132110689270 xtb: 6.4.1 (79825abcba525fcdf90b791dcacef51065a7a4e7)
C         0.26628336411921    0.98461459465461   -0.24591276973376
C         1.64585336820068    0.34040184267069   -0.19902878231628
N         2.69316431541986    1.33827931959581    0.06025120275972
C         3.59713148467097    2.00994820013776   -0.84114533599854
C         4.13977130186249    1.00581476004413    0.16785174618154
S         4.64327651327181   -0.47192730474224   -0.86980941696448
O         3.53245991825532   -1.31368670014285   -1.26034295555043
O         5.91900982269946   -0.98503581347885   -0.41182968382276
C         4.82329444717575    0.54618363681971   -2.35312647480816
C         4.84813282756307   -0.34187699240898   -3.57889652745120
O         6.01134746970503    1.35971559713259   -2.22710240468010
C         3.73300901402892    1.60923889142878   -2.25702651904560
O         3.08260274434012    1.99057805840554   -3.21699360760273
S         1.87461272200907   -0.82354021494788    1.23746563828131
C         1.50832053698676    0.11546716998319    2.70165355879169
O         0.88688095069569   -1.88576153269932    1.23624596097416
O         3.29173440801072   -1.11230724832062    1.40114048779742
H         0.01084659047886    1.40783506357969   -1.21901616855489
H         0.24414906086541    1.71365525306534    0.56748290137064
H        -0.44582200430949    0.15695380502433   -0.15140911288483
H         1.84256502363881   -0.16193400496885   -1.13981559006328
H         3.73916735251545    3.07539050792909   -0.68143389738664
H         4.78148427051685    1.11071812859407    1.03291600852481
H         5.64722890143025   -1.09004083666061   -3.60176479358660
H         4.83350790058246    0.23166499261864   -4.51338870273863
H         3.95369672586339   -0.95076287513747   -3.41704265911393
H         6.49931531554507    0.77377983297561   -1.60703732301017
H         2.28182690174869   -0.19275627513984    3.40608512705449
H         0.48997374319019   -0.08346153297923    3.03706951184809
H         1.69408542998227    1.18096054117516    2.54395967551641
