30
 energy: -57.479160792904 gnorm: 0.125031141340 xtb: 6.4.1 (79825abcba525fcdf90b791dcacef51065a7a4e7)
C         0.72279223074297    1.92835570451537   -0.06664032968282
C         1.81020446182556    0.87603516293017   -0.24150527007739
N         3.10215201207352    1.33086792694449    0.29126504492058
C         4.29847240671967    1.70166760668310   -0.42437240278428
C         4.24125225422032    0.37356815630030    0.31973456784356
S         4.24067743633233   -0.85589840657740   -1.09532418567840
O         2.94760359372964   -1.08021393100497   -1.70575962847643
O         5.10943454944296   -1.90290584823509   -0.59576662289742
C         5.14001605440041    0.26827794819081   -2.18921787837242
C         5.14556603042315   -0.13177216458194   -3.64925553223973
O         6.40733001139007    0.46065463414857   -1.52131605492760
C         4.28932287739915    1.49859439266399   -1.88807575375312
O         3.76901712770728    2.19913654929710   -2.74160218430233
S         1.50879240993370   -0.51619816767178    0.95909679587971
C         1.49130055078364    0.26799848210317    2.55423965734573
O         0.17409631507575   -1.06833256989962    0.82619230940333
O         2.62572111777080   -1.44933949126428    0.97037773676538
H         0.36502517769381    2.24528048788131   -1.04789215536313
H         1.06405557723704    2.81248707497928    0.47691626187117
H        -0.04615755723929    1.42643886914976    0.53155954397275
H         1.89107976130633    0.46205670122756   -1.24060368865062
H         4.81759705153987    2.61269685434767   -0.13909288187047
H         4.68713308913624    0.14771867278616    1.27958796532686
H         5.96404646199762   -0.85405298421032   -3.73426630683488
H         5.41150946019550    0.73473338028420   -4.26641204073373
H         4.16736048014451   -0.54348787670371   -3.91488442166399
H         6.66571763043093   -0.28620557581802   -0.93706464590503
H         1.19273712558592   -0.52398803051442    3.24210219295516
H         0.66234164789967    0.97462212105112    2.50308446956551
H         2.48200840241749    0.64163152582435    2.82543770655148
