30
 energy: -57.467588305776 gnorm: 0.143013634033 xtb: 6.4.1 (79825abcba525fcdf90b791dcacef51065a7a4e7)
C         0.44769359440572    1.20540098428207   -0.55246427027120
C         1.73356100314594    0.48613625441469   -0.16565060059749
N         2.91539574151990    1.24700645712753    0.26352181752051
C         3.93402073518112    1.82758182922188   -0.57680360694357
C         4.24476446030668    0.57849049124097    0.23807444000530
S         4.46329585500979   -0.73406003521131   -1.08231752195809
O         3.26473587462024   -1.47761578820298   -1.40722927498680
O         5.61205032017974   -1.49965656434783   -0.64101672855492
C         4.99359992266554    0.51963184363338   -2.27236798708646
C         4.94636929807711   -0.01785601151468   -3.68681378691028
O         6.28931173549560    1.06763257720560   -1.94068682253879
C         4.06264472885919    1.70673104530724   -2.04397815070834
O         3.45148168947105    2.21164448204045   -2.97216285256918
S         1.62279857119093   -0.63917338189260    1.31489595227108
C         1.39261796850797    0.37945110265567    2.75335768237956
O         0.55161585057333   -1.58146346355877    1.05300542625701
O         2.97633663461088   -1.16644577077888    1.40615529081968
H         0.51759739710151    1.64663025317227   -1.54831763676949
H         0.27148050193364    2.03058785900746    0.14152297546198
H        -0.34426079918646    0.45761363206456   -0.43134575535255
H         1.96244167599487   -0.23211751605282   -0.94529266922375
H         4.18800615844738    2.82850217248804   -0.23842644125633
H         4.82560273018656    0.45450052152107    1.14272343232598
H         3.92712766950002    0.21190577030208   -4.01420141214248
H         5.11670992650399   -1.09820107157979   -3.60757652007275
H         5.66289741230287    0.56673961433313   -4.27144191548129
H         6.83157015582316    0.38027297608593   -1.49413712972402
H         0.49949413772880    0.99075379005717    2.61853754228294
H         2.33787756430020    0.91011025122418    2.87164482287836
H         1.18894787698024   -0.28318991775493    3.59838871872771
