30
 energy: -57.470334313881 gnorm: 0.126844718475 xtb: 6.4.1 (79825abcba525fcdf90b791dcacef51065a7a4e7)
C         0.69544876211921    1.30336093455967   -0.50546327410193
C         1.90610296255063    0.41810755603945   -0.23888414422826
N         3.01738057323705    1.14258701155185    0.39360092737003
C         3.89456110574084    1.82915529703633   -0.52290862875032
C         4.42637137689219    0.67062872263136    0.31124427361139
S         4.88284392494036   -0.61356365607373   -0.97579207678285
O         3.90480577127012   -1.64896410312275   -1.23342769507797
O         6.26649173922257   -1.02594167371480   -0.84936285066564
C         4.78446939983732    0.49813265087854   -2.39833895193062
C         4.53285221493525   -0.19495365561509   -3.72049666328807
O         6.05195156735363    1.13271724176319   -2.11553574469450
C         3.75180683269296    1.53391177024958   -1.96381204204053
O         2.89261198828987    2.03042163711706   -2.67461923382783
S         1.45303762815760   -0.67322516111967    1.20137030802654
C         1.26394404481120    0.35718923680245    2.63742075459361
O         0.22376540901776   -1.43995646543158    1.13106678485053
O         2.69047747167088   -1.39018228561772    1.47178636443059
H         0.84206902901840    1.88525346851648   -1.41716350560603
H         0.45994860129823    1.99176052463343    0.30955108637374
H        -0.07911302712955    0.57350959990505   -0.76703246813882
H         2.14110882797808   -0.21650802789300   -1.08632257543144
H         4.15118062143865    2.83352732110841   -0.19697536578158
H         5.04464140073596    0.84975917950947    1.18118154031030
H         3.77273880627226   -0.91952075852379   -3.41056642888192
H         5.42751454429915   -0.65844718802299   -4.15315470878321
H         4.19251262418117    0.51257708019489   -4.48241782285094
H         6.81350546285371    0.51840237251787   -2.02297792858590
H         0.75586202974359    1.29994719759655    2.43102861290716
H         2.30044009247306    0.46187355270960    2.95963779349152
H         0.76580451414370   -0.20049006661173    3.43460510150817
