30
 energy: -57.470579393944 gnorm: 0.125035865588 xtb: 6.4.1 (79825abcba525fcdf90b791dcacef51065a7a4e7)
C         0.71936984900485    1.18919739979666   -0.49488060670320
C         1.95348674781889    0.37606858320066   -0.12582962014195
N         3.02538896109157    1.25777063090479    0.35736048300064
C         3.93243685151926    1.88339053884941   -0.57359369706779
C         4.42862029195032    0.76275132158421    0.33127492290376
S         4.83505119618813   -0.55295583683248   -0.94061666712027
O         3.77127735805079   -1.49083392928434   -1.23002771187182
O         6.19201453095000   -1.01931862036362   -0.73646591806113
C         4.84187771634928    0.48760388672211   -2.41925614338279
C         4.66375223040919   -0.15583137892148   -3.77794787154353
O         6.13962438109479    1.11987531207365   -2.34664252577439
C         3.78245400134495    1.49938157108666   -1.99267516131785
O         2.90526436913587    2.04980206838544   -2.63886427240270
S         1.42871407665922   -0.76233456644383    1.25230684913590
C         1.35060212152252    0.32684964847618    2.65492132443899
O         0.10667991605341   -1.33490831057367    1.08403727426632
O         2.54805578215049   -1.65583867860747    1.51140967545655
H         0.71188323535111    1.17058670279476   -1.58616027872513
H         0.74619652048234    2.21818229490969   -0.12872061935544
H        -0.14134834467820    0.64607899752667   -0.08839079505670
H         2.18394436632589   -0.24331467014017   -0.98569606520293
H         4.03814437773714    2.92917581198730   -0.29789783813607
H         5.16963861494248    0.84633471408153    1.11552098877529
H         3.72275361575361   -0.71341229609686   -3.72843262716142
H         5.47403554209014   -0.80369970715753   -4.13312037601279
H         4.64889690334131    0.67770239554483   -4.48643597975726
H         6.79272442576699    0.52465088519271   -1.91643065075856
H         0.61853218113132    1.12086472603255    2.50276587054653
H         2.29030010555202    0.85203410493386    2.82886289161196
H         1.09901465105837   -0.37264683239771    3.45620810116025
