30
 energy: -57.461127395940 gnorm: 0.143348968869 xtb: 6.4.1 (79825abcba525fcdf90b791dcacef51065a7a4e7)
C         0.53297466045981    1.36079886475580   -0.43922159211738
C         1.78522519161904    0.50833615597712   -0.27922922127439
N         2.89770858079809    1.37827210129964    0.12751109244129
C         3.95553918774219    1.94842559625694   -0.67044332111697
C         4.26482195618482    0.81641516737569    0.30100612792793
S         4.62979918718835   -0.64657607715350   -0.81273884580331
O         3.52665454384619   -1.58359517790858   -0.82021859397624
O         5.89116762380806   -1.27540319071417   -0.47502980558420
C         4.90910362328933    0.36699046383556   -2.28374453412975
C         4.65522529572914   -0.31373278119390   -3.61187950590150
O         6.24779649167689    0.91194598499607   -2.29428895216167
C         4.07073892404439    1.62976147384160   -2.10882161614546
O         3.57949777060604    2.31254923275686   -2.99339369356600
S         1.66222734693284   -0.69079982979985    1.14117657405840
C         0.99805758067988    0.17883095409687    2.54202343194211
O         0.59571292669432   -1.61331912591980    0.80141959395833
O         2.90049958577426   -1.26120075713518    1.65081798813565
H         0.27718713559327    1.80932144897035   -1.40083167988441
H         0.57020049066974    2.23232243461651    0.21855012081430
H        -0.34105101535380    0.84553435393072   -0.02494031508639
H         2.06670300981133   -0.18231284034188   -1.06656068392422
H         4.13347276047270    2.99515967939359   -0.43906372076720
H         4.76646096083267    1.14021777801236    1.20358380395400
H         3.77012976452969   -0.95790730456265   -3.59016049747429
H         5.55452387500319   -0.72906900530807   -4.08219621783474
H         4.43332558330925    0.47230890929143   -4.33978994794785
H         6.90375718022421    0.26521131471910   -1.95170482353941
H         0.23988167254826    0.86657720573628    2.16557687692755
H         1.82585973326176    0.78446547661268    2.91223567441551
H         0.56540713350182   -0.60261287640013    3.17195296052818
