30
 energy: -57.472679914918 gnorm: 0.137159801556 xtb: 6.4.1 (79825abcba525fcdf90b791dcacef51065a7a4e7)
C         0.66007123102125    1.83921144083122   -0.18873546574406
C         1.84605444703569    0.88342839590266   -0.20728667754903
N         3.10043533439080    1.45181429974799    0.30585251382245
C         4.21483846547036    1.89523304320285   -0.49558179045960
C         4.28854711805501    0.55868362597923    0.23175565398368
S         4.12612975170024   -0.81339262571084   -1.03513311901513
O         2.88042831497269   -1.13273216461969   -1.69939136387731
O         4.92783421544328   -1.94020733452120   -0.60145141605389
C         5.02407832492413    0.28416781632592   -2.15684399096066
C         5.24080187303863   -0.21200713490575   -3.57057033249701
O         6.27562545973853    0.32559345606527   -1.43497143441667
C         4.31903944276573    1.62042445754298   -1.94381262605028
O         3.87647338499485    2.27126115548705   -2.87683543896178
S         1.58877346968452   -0.49847886482153    1.01531178702683
C         1.64026941785114    0.12535773735662    2.67902064405724
O         0.29376676158198   -1.14263664718665    0.90600467658415
O         2.72592930932811   -1.37626147767895    0.78125194597202
H         0.75485961589669    2.55569577660868   -1.00663466151916
H         0.48825155674039    2.29882054642992    0.78739987297045
H        -0.16550293076771    1.20922604395391   -0.53886841608443
H         1.94232585989881    0.52135217797301   -1.22500433144192
H         4.59405826850246    2.84751676646514   -0.13475317029488
H         4.81024279431264    0.42077704568523    1.16981310619478
H         4.31621909168797    0.10645205295022   -4.06307115183336
H         5.18383590502865   -1.30197028146863   -3.46485779511044
H         6.11777667254226    0.26310315051837   -4.02017021084643
H         6.56789637867282   -0.58130965447593   -1.19410113386315
H         1.72078070800960   -0.79198967736622    3.26342570539902
H         0.70600999607461    0.60418050322836    2.97396941015725
H         2.49880294931112    0.77180149356802    2.87822587949661
