30
 energy: -57.477498252168 gnorm: 0.121870368462 xtb: 6.4.1 (79825abcba525fcdf90b791dcacef51065a7a4e7)
C         0.31722657519133    1.33753611420150   -0.10849774589893
C         1.70463990034676    0.71040991085866   -0.15559994735854
N         2.83559340052513    1.58925282764398    0.17367935347741
C         3.85877800294437    1.97971822734027   -0.76517200220806
C         4.13931523612425    0.87518998407541    0.24583426684139
S         4.33973677356181   -0.65103000495578   -0.82396168578840
O         3.10482133973030   -1.08673696815442   -1.44051027223407
O         5.37604186611906   -1.59348077506955   -0.45196764024752
C         4.97027089401307    0.35047131405720   -2.19093193681477
C         5.12472516654317   -0.36460057081728   -3.51629864891245
O         6.24954627846527    0.91028180070381   -1.81776574031925
C         3.99780590701117    1.52591338843356   -2.16462987592060
O         3.47599036497961    2.03717908943046   -3.14253614776306
S         1.81577352072123   -0.66141741546428    1.09992675745414
C         1.46804588717263    0.09339903497874    2.67126017768942
O         0.78036198164983   -1.62406600950114    0.77564247623681
O         3.17672973313120   -1.16178926901293    1.22576762200930
H         0.24940732208186    1.98774649598917   -0.98252333913807
H         0.13757997904172    1.99759012324452    0.74335818424232
H        -0.47318417713162    0.58085746167378   -0.04737792161704
H         1.77169230053810    0.12072193712658   -1.06328309718106
H         4.22856244358776    2.99898891350762   -0.69308978196286
H         4.70623921744785    1.05572636632361    1.14979228116915
H         5.78028655969954   -1.23896947610227   -3.58371458682660
H         5.48135090446092    0.34158304963684   -4.27561590836201
H         4.16844993031942   -0.74613436135373   -3.88633144820410
H         6.91184654847039    0.19427832120401   -1.93864342042840
H         1.89006581914811   -0.49751361024731    3.48505317702633
H         0.37990724680864    0.12316997961385    2.60664846639795
H         1.92830449449017    1.08424127875091    2.70359812728832
