30
 energy: -57.471436656193 gnorm: 0.131535229180 xtb: 6.4.1 (79825abcba525fcdf90b791dcacef51065a7a4e7)
C         0.51117761214933    1.33954639638084   -0.57395098356958
C         1.74769464975584    0.47858766040462   -0.34990344209571
N         2.84421961574167    1.26513176665138    0.23218495779499
C         3.89547400350001    1.88840923360582   -0.53410561310744
C         4.19492350477576    0.64307115720602    0.29068559501735
S         4.55296673205381   -0.74552786169347   -0.91661611812060
O         3.40046431554889   -1.52811518947530   -1.30940626986314
O         5.75127252941263   -1.44248619548129   -0.49372894205532
C         4.95006732939361    0.45323599296897   -2.21062623052231
C         4.85218798932344   -0.09476078007681   -3.61842593841868
O         6.26849462669941    0.82979191072600   -1.75330642708051
C         3.97206228062673    1.60178949475815   -1.98177039066173
O         3.41292598384995    2.19244261052200   -2.89197929564341
S         1.55962732760524   -0.62488731422007    1.13925130028780
C         1.51532389104255    0.58055194793127    2.44489462460194
O         0.42752189628578   -1.52964865128500    1.07863874105258
O         2.82159027619363   -1.29707240323265    1.41132932388706
H         0.64057885244598    1.85183472778077   -1.52899533477299
H         0.32683507613527    2.16045970406995    0.12298652419166
H        -0.29899507375963    0.60332315286604   -0.62536041842904
H         2.06341378263541   -0.12319701008394   -1.19506216549834
H         4.31782825559482    2.80189443418122   -0.12421440853371
H         4.76262694797393    0.69032001373558    1.21080330981568
H         4.65447644162650   -1.15727418792563   -3.44292085849874
H         5.79674032871416   -0.09998668537788   -4.17541201647093
H         4.12809202432751    0.51169275977384   -4.17056158346507
H         6.76811715403595   -0.00354965381190   -1.60554577304227
H         2.45809388740351    1.12179222364045    2.35668282950361
H         1.45672565205730    0.04959718513765    3.39555753501390
H         0.55020267403253    1.07268518617653    2.29998778288306
