30
 energy: -57.466319629290 gnorm: 0.139705937915 xtb: 6.4.1 (79825abcba525fcdf90b791dcacef51065a7a4e7)
C         0.72578902057193    1.91959621163144   -0.03822919913685
C         1.90839713056998    0.96505847951598   -0.14175409303345
N         3.18505104436464    1.47539602270108    0.37743365566428
C         4.26648133190217    1.77855665703810   -0.52778124069953
C         4.35858902839776    0.56020798271701    0.38214192184205
S         4.25166384693812   -0.81013117336307   -0.89250204878655
O         2.90288003366078   -1.20518494186864   -1.23848411521608
O         5.29427473553039   -1.76766904753689   -0.58168857072954
C         5.01159021245256    0.18564393885971   -2.19639225950649
C         4.83686979684764   -0.40315735050622   -3.58007092964517
O         6.39528104403160    0.25568355080379   -1.78446940822466
C         4.43379087299793    1.58154887189415   -1.98275386871648
O         3.91907005709880    2.35059009063834   -2.77875816617248
S         1.50102981221574   -0.54596474959090    0.86892334135260
C         1.24159691191348    0.29855242542054    2.41140070274432
O         0.33851504696615   -1.26914506130131    0.38986246590663
O         2.72623456237662   -1.25128009639012    1.21506393215852
H         0.55386656733328    2.38297781606884   -1.01137558439130
H         0.87187551365956    2.76458858697027    0.63871196688538
H        -0.11927786435782    1.25885708479733    0.18612128929653
H         2.09675075871952    0.55842273921231   -1.12932024594904
H         4.80874924437538    2.66382647239955   -0.20670182191657
H         4.87497202919694    0.32521688984414    1.30369713924501
H         4.19338916386128    0.11905389780417   -4.29565091717652
H         4.47676259367887   -1.42566461411241   -3.41502056981521
H         5.81645220748743   -0.28052259153276   -4.05159362245840
H         6.76434157996990   -0.63710589036108   -1.60381676231107
H         1.45999847606342   -0.37980329132289    3.23703494457932
H         0.20169299752386    0.57285239944790    2.59158409862184
H         1.90504521990110    1.16676637606159    2.43772481873281
