30
 energy: -57.468616119076 gnorm: 0.142041687320 xtb: 6.4.1 (79825abcba525fcdf90b791dcacef51065a7a4e7)
C         0.41696295335773    1.25734729533452   -0.34653513499990
C         1.70947983525805    0.45791129483276   -0.24297953839328
N         2.83677821925672    1.27839349472505    0.22162037489820
C         3.75966165278811    1.90334834426650   -0.69409196431746
C         4.21564635523507    0.72261260900142    0.15370408925929
S         4.57570423077634   -0.68572219496416   -1.02990531368897
O         3.47659319551977   -1.52472840752715   -1.45770472348794
O         5.78230580924159   -1.30382999783781   -0.51748299696403
C         4.94455003760391    0.55286631769375   -2.29443570462891
C         5.07941452769214   -0.11836040514129   -3.64463831970763
O         6.09438737019521    1.15096817253929   -1.65464309684914
C         3.71611600212989    1.43564579320340   -2.09520160686863
O         2.92379793932201    1.69592537838699   -2.98653281463518
S         1.70652467801753   -0.64718213442185    1.25680977132095
C         1.59531500057298    0.48887364529727    2.61943986496531
O         0.56735895404644   -1.53892312416152    1.15179012171411
O         3.02593761499424   -1.26157859229915    1.24807924141282
H         0.54622525512440    1.77806871048863   -1.29702669138386
H         0.33811053793067    1.95525141629915    0.49031303688379
H        -0.39661008053699    0.52512266778192   -0.40124704807820
H         1.69191708512224   -0.08847215746198   -1.17960820418835
H         4.06214919746562    2.92592745243548   -0.48508838514728
H         4.80862850842188    0.63828865629788    1.05503535268526
H         6.05607302463699   -0.51463493453416   -3.94117045762457
H         4.90096080382749    0.61296882414563   -4.44197874255959
H         4.28400109542714   -0.85549153076744   -3.50003607764605
H         6.75693942954763    0.46346239077178   -1.42167397343405
H         2.30758214277307    0.25334083883440    3.41110736977625
H         0.58963613210344    0.53695197707064    3.03825386972124
H         1.79871356139885    1.50105757533966    2.26060174301849
