30
 energy: -57.468028955358 gnorm: 0.139574190968 xtb: 6.4.1 (79825abcba525fcdf90b791dcacef51065a7a4e7)
C         0.75079327200890    1.28224077505358   -0.48733714459405
C         1.84141078531955    0.30442985405616   -0.06917345153831
N         3.06273868932334    0.98485478814288    0.38384484117215
C         3.88958066921065    1.69827388390456   -0.55858679261501
C         4.47132456581645    0.53054513038321    0.22805231401495
S         4.80661896403923   -0.62301048233678   -1.21099832982803
O         3.73393056291675   -1.54520820247928   -1.51739644525576
O         6.11828272088362   -1.16005171454665   -0.90826715074088
C         5.06832621869469    0.63683538909739   -2.48122804661273
C         5.02385371158575    0.05577315106147   -3.87842871714866
O         6.31825224641637    1.11004658757623   -1.93082602509862
C         3.85826410155762    1.43980754581820   -2.01322226175170
O         2.96921022652686    1.81181690912045   -2.76233973813347
S         1.34700858487589   -0.67254167728252    1.43804295413743
C         1.00613055104460    0.53636103801682    2.69586149807235
O         0.02298848922151   -1.18332706406570    1.13804505256349
O         2.39322791645330   -1.58891637889595    1.86710267428255
H         1.04332524756494    1.61582812430766   -1.48455239342829
H         0.85430140060158    2.12069166780297    0.20540298690114
H        -0.25667781103823    0.85481520418199   -0.42939949828289
H         1.93170922844847   -0.43518027578530   -0.85717071242669
H         3.96049474460776    2.75086931921077   -0.29808121663054
H         5.19377588623599    0.54132234161097    1.03370991610956
H         6.03099229715351   -0.19518486476310   -4.22702386240778
H         4.67313528207576    0.87816501258360   -4.51333668899377
H         4.41646015814128   -0.85358568774745   -3.84534991744463
H         6.93127701685340    0.36744932209278   -1.73419445022855
H         1.54140440094416    0.37531848580004    3.63238956762313
H        -0.03958001192821    0.78078270691589    2.88521341768818
H         1.54238964596486    1.40144650183765    2.29748302982117
