30
 energy: -57.468777957827 gnorm: 0.133920686321 xtb: 6.4.1 (79825abcba525fcdf90b791dcacef51065a7a4e7)
C         0.55809753949403    1.43736468808218   -0.38353385710561
C         1.83805386094194    0.61853388695588   -0.27560071082765
N         2.98153919820099    1.37631551266194    0.25170738560370
C         4.03079997789333    1.92454695020368   -0.57249280168348
C         4.32602800547497    0.74518065651370    0.34552301891257
S         4.47624266304496   -0.68420363963434   -0.85792025858050
O         3.26704894007375   -1.42266262150284   -1.15375419781535
O         5.71929474921765   -1.39086994870790   -0.62134996375130
C         4.85165395382015    0.41413641589021   -2.24424681536526
C         4.91414068638099   -0.39048959387749   -3.52504861024315
O         6.21579784354563    0.80282325410200   -1.96636142449287
C         3.96974186468967    1.63908178380085   -2.02112369356269
O         3.43486006349832    2.20024655958730   -2.96398122215085
S         1.67836150681859   -0.64996006458056    1.07940100068444
C         1.20600399326145    0.32220392316066    2.49061560505598
O         0.52051145079333   -1.44554925325953    0.71835978823185
O         2.93245577493074   -1.30579615781201    1.41930733097641
H         0.36477742187942    1.97758784508066   -1.31201648959713
H         0.43943917445590    2.07108311804507    0.49846606648781
H        -0.33430454319634    0.80542255286515   -0.31062958079719
H         2.08081257640001    0.17074071598465   -1.23302752825946
H         4.50464334103416    2.86151985628218   -0.29248680085755
H         4.88801348210435    0.61040887056098    1.26047936674164
H         4.37410603364567   -1.32718195077740   -3.35243159624142
H         5.95230039343885   -0.60947946216635   -3.80201031050860
H         4.45229110753356    0.26869670856883   -4.26607696212297
H         6.58136827647327    0.06446983231729   -1.43053820089292
H         1.69142889920363    1.28897356194331    2.35184691574123
H         1.47548230580191   -0.18792608823314    3.41595634962934
H         0.13899681496188    0.49236060077330    2.32570815515480
