30
 energy: -57.475732462787 gnorm: 0.126950812389 xtb: 6.4.1 (79825abcba525fcdf90b791dcacef51065a7a4e7)
C         0.42941400417420    0.67875433289738   -0.41906438410785
C         1.77253246250915    0.03898880964307   -0.09171983159019
N         2.73695784656953    1.10467786202318    0.21493357913598
C         3.41276183348011    1.95139366104722   -0.73752260953339
C         4.21983097352028    1.00323909514898    0.14023554752338
S         4.98830005572890   -0.23917072405167   -1.03443586585865
O         4.11045995272180   -1.38587271780818   -1.13169903026101
O         6.41434145108646   -0.33509793991893   -0.79417525557037
C         4.57914070151065    0.69444017201473   -2.52780291942498
C         4.57040844199859   -0.27300863686040   -3.69216858353885
O         5.53820253224836    1.77187764514508   -2.62008074751812
C         3.32179020448773    1.46108452634936   -2.12859099647311
O         2.35455825200105    1.49878457695992   -2.87224801048912
S         1.89369378808514   -0.91393153505456    1.50448533472879
C         1.48505662256712    0.26439720811329    2.77109819575704
O         0.92459780912067   -1.99285016180801    1.47770386068473
O         3.29428535082313   -1.27724206695468    1.66183354793319
H         0.43183600721100    1.00596798374326   -1.46032280317546
H         0.17130400210845    1.48800099181068    0.26803226122132
H        -0.35093693209405   -0.08726691146422   -0.49194270693378
H         2.06937860938660   -0.65779670669886   -0.86792141560213
H         3.47347062829839    3.00808223170658   -0.49140689766205
H         4.74491022537216    1.16132937362315    1.07320695454891
H         5.61813495980468   -0.58878260583353   -3.72935157969285
H         4.28502543067218    0.13938836394293   -4.66732250625676
H         3.88126509392948   -1.08037107900497   -3.42721204849030
H         6.38869864061348    1.37939748931935   -2.91762022509015
H         0.53067453533605    0.78884808867878    2.71073489345424
H         2.27507730265113    1.00025829422486    2.61785828593130
H         1.64610084858354   -0.25992061524374    3.71651220974434
