30
 energy: -57.471686231408 gnorm: 0.138185895194 xtb: 6.4.1 (79825abcba525fcdf90b791dcacef51065a7a4e7)
C         0.60707316809941    1.60409394135210   -0.35513829578741
C         1.79106838383475    0.65902267941070   -0.19571058306627
N         3.06148977707194    1.24984212320811    0.24791952479900
C         4.05348901408073    1.87704893908768   -0.59074643231694
C         4.43518551080845    0.67769075353103    0.26754535400283
S         4.63765183661529   -0.73292528643035   -0.95030092992751
O         3.47800545064310   -1.52620651352774   -1.29802781093631
O         5.84046302821481   -1.44024128081587   -0.55854771988121
C         5.06017570296007    0.38858393490565   -2.30413861870832
C         4.98083819776967   -0.18831666906447   -3.70151906136985
O         6.28057163385660    1.08465611989477   -1.96457480026954
C         3.93190086118403    1.35974531182840   -1.96964577397158
O         2.94600334106056    1.60309340465415   -2.64697323761490
S         1.53672664644686   -0.60000044245310    1.15365194837642
C         0.97591868740015    0.34505619210968    2.55083249875873
O         0.47104635343118   -1.52450707714490    0.81669102682967
O         2.90145395977744   -1.04234663796893    1.39912889604264
H         0.83788831779860    2.21479554463758   -1.22981632476849
H         0.62563272414382    2.36288060713438    0.43067406632078
H        -0.30582925915328    1.00167132600186   -0.42401160655905
H         1.92735818637218    0.13509927367357   -1.13541582863198
H         4.30466152260312    2.91681303328771   -0.39929864030397
H         4.88507310885069    0.60294231292535    1.24894752716325
H         4.00810950499601   -0.66166411087282   -3.87053894295999
H         5.70536193364260   -0.95524146224711   -4.00040305299070
H         5.06752583347446    0.61194102704480   -4.44248296497475
H         6.86205157354473    0.33211168662112   -1.71663932592790
H         1.79469705877599    0.94512413151943    2.94965334763194
H         0.65812128163065   -0.42659327938806    3.25273604269273
H         0.06613455005389    0.93754177282855    2.42471453621282
