30
 energy: -57.476793653211 gnorm: 0.132713962186 xtb: 6.4.1 (79825abcba525fcdf90b791dcacef51065a7a4e7)
C         0.32119297452553    1.15191091240057   -0.45680528520413
C         1.63049146767698    0.42058256897908   -0.18975120928337
N         2.72990539601802    1.34789044052993    0.11229998007615
C         3.76703837653311    1.92412698533251   -0.70813775067449
C         4.10682390991115    0.80514604916034    0.26820466348012
S         4.56467856940933   -0.55900075301103   -0.93323297408163
O         3.49167999203647   -1.37037840123488   -1.46739511867037
O         5.73327298069678   -1.29205429971910   -0.48877729043268
C         4.95035773962009    0.49948240460359   -2.34746450368072
C         5.03138939418846   -0.23705443825606   -3.66758881634951
O         6.19667537956169    1.12034989262375   -1.95964727222899
C         3.88465414509178    1.57119546504149   -2.13829719993739
O         3.16574168703361    1.99757580473435   -3.02787539953213
S         1.69370442424115   -0.71625164753143    1.28477253256851
C         1.63108398626945    0.37152897214528    2.68925218862595
O         0.56704477419234   -1.61931390759635    1.14676436457262
O         3.01781188792644   -1.29823249512538    1.44739924164975
H         0.45887541871837    1.75922666733782   -1.35318960739055
H         0.00290593069549    1.81783337221669    0.34870285559510
H        -0.47967774040496    0.41493600885577   -0.58534115560963
H         1.79553864497792   -0.13402267995367   -1.10696930695598
H         4.07579156273941    2.92075239549654   -0.40439691654957
H         4.65764576029431    0.84023471105407    1.19906474744009
H         6.08710215698120   -0.44055269397798   -3.87467733113521
H         4.55477434203687    0.27412841667634   -4.51255633240193
H         4.48475540640829   -1.18475994307029   -3.66802687343175
H         6.74918561857367    0.37038653633955   -1.64627617639651
H         2.02581181198990   -0.19833573714683    3.53126274647491
H         0.68143666307179    0.71617025473783    3.09973852298882
H         2.35087967182983    1.17043136636413    2.49354522403661
