30
 energy: -57.467375095019 gnorm: 0.134105899268 xtb: 6.4.1 (79825abcba525fcdf90b791dcacef51065a7a4e7)
C         0.63683910991305    1.00667578945739   -0.69637634888898
C         1.75644482801690    0.12768993386420   -0.15389274227996
N         2.95993310142297    0.83252540016695    0.30943083034168
C         3.85419633560032    1.64371270049068   -0.47992327524006
C         4.37921216165141    0.39460043131397    0.21642003118011
S         4.92860118320621   -0.69262653030050   -1.20839190267371
O         4.06686863021899   -1.78035613216220   -1.61979213251306
O         6.26396408005604   -1.19716320437081   -0.95785262097435
C         4.99615358772002    0.63662536206248   -2.43220231170373
C         5.00271088501664    0.19986437827025   -3.88167728352725
O         6.10713676228603    1.47529975611570   -2.04293640247223
C         3.79161096149303    1.43428024164720   -1.94141951349863
O         2.89961764655256    1.89323512229797   -2.63689995539551
S         1.29606920159401   -0.60192554960236    1.49726555365249
C         1.23466199208023    0.75703504703503    2.64147110806684
O        -0.06795108120738   -1.09081624137744    1.56332784346987
O         2.34061862262048   -1.54549238158485    1.86741129343104
H         1.00555866499940    1.54540752913632   -1.57108072105371
H         0.51456243366250    1.78534180958050    0.06014884636589
H        -0.22822812019622    0.40597147586354   -0.99946115071278
H         1.96468445932760   -0.70186177153305   -0.82067367810486
H         4.08764705516464    2.62113084678015   -0.06639726299470
H         5.08763838855630    0.52752464990557    1.02363736602330
H         5.52512129753845   -0.76108954451467   -3.93149244082890
H         5.57884941230592    0.94631329171545   -4.44142574465022
H         3.98054905331871    0.02745623077728   -4.23155619569992
H         6.94966459773909    0.97174777775656   -1.99297346307604
H         0.44431268316147    0.64692747001782    3.38495070717161
H         1.12429418975255    1.70571220371419    2.11522279822345
H         2.13566406243432    0.61831654222658    3.24446739839210
