30
 energy: -57.474051307922 gnorm: 0.136732722449 xtb: 6.4.1 (79825abcba525fcdf90b791dcacef51065a7a4e7)
C         1.02826844001342    2.36050896251780    0.11636331323511
C         1.88386657273478    1.12421603386204   -0.12849013569687
N         3.24343672394655    1.41333918760672    0.34881750018465
C         4.43931802129824    1.64969847269884   -0.42242414900265
C         4.25129752509988    0.31961831569776    0.29615232899554
S         4.13277931613587   -0.90645981267088   -1.11688187242820
O         2.90389815552733   -1.10520403913902   -1.85535370931024
O         4.82743340948503   -2.08207768152522   -0.63118693318896
C         5.27498904981761    0.07411340522487   -2.11839019913998
C         5.43803602773089   -0.46969679881954   -3.52176719542227
O         6.50443820864144    0.05187485799067   -1.35868860324147
C         4.55472144644297    1.39677323217533   -1.87378937725258
O         3.97401083229511    2.01021689528258   -2.75495153557893
S         1.28056401318497   -0.30031989793295    0.90945570601249
C         1.25528205037280    0.22312031138731    2.60802047389625
O        -0.12236512390957   -0.47950430120056    0.58756682231091
O         2.20614226072396   -1.42184199597365    0.84698314560173
H         0.99584112489615    2.98126650668829   -0.78080014703281
H         1.48822398205157    2.86513497982837    0.96923857268681
H         0.02566814914080    1.97531138500557    0.33422304341361
H         1.83094600102663    0.85156913861654   -1.17681245201937
H         5.10078006305119    2.40739469519597   -0.01106829668274
H         4.95877820321371    0.13236350786536    1.09336190716310
H         6.30906600124980   -1.06097604411090   -3.82263638600915
H         5.42524908275698    0.33318318930369   -4.26853365249982
H         4.62038064530185   -1.18138512871197   -3.66973350734703
H         6.89651708515818   -0.84077920503051   -1.48261165220779
H         0.99009590586317   -0.70831515848655    3.10965968388097
H         0.59588271276421    1.08493707065283    2.71558938090399
H         2.28201278685541    0.45174116953588    2.90501976389444
