30
 energy: -57.476458472336 gnorm: 0.131073809645 xtb: 6.4.1 (79825abcba525fcdf90b791dcacef51065a7a4e7)
C         0.83497812308887    1.78730360735226   -0.37978514155026
C         1.92866891874691    0.74759615773048   -0.17176967040841
N         3.16452671594327    1.25301521259596    0.44227661617542
C         4.29137232184627    1.64370323419999   -0.36913778071492
C         4.33513875311046    0.33468154918121    0.40891349987682
S         4.42032458603871   -0.87725727434919   -1.01864646421863
O         3.14332131395902   -1.36584771641379   -1.49354735364111
O         5.50567532109323   -1.78461252588679   -0.70362029633936
C         5.00700631022602    0.25700036533952   -2.29866599424470
C         4.74157054620903   -0.09993190841967   -3.74570575124056
O         6.41954452676866    0.49031535726078   -2.09995463580951
C         4.38317373122554    1.57253165945413   -1.84231709178871
O         3.99985308782161    2.52439114400434   -2.50338706111826
S         1.37133097016867   -0.47208543619539    1.12142768500695
C         1.03087009801035    0.35266364797471    2.65883668815509
O         0.17964789231596   -1.15656957356428    0.65742060002486
O         2.57211643413325   -1.27917994675103    1.27992831245483
H         1.08302965393800    2.54379926401497   -1.12642996676403
H         0.62444556940877    2.29968781542086    0.56188422440425
H        -0.03818216358204    1.21144200141743   -0.70692716616376
H         2.09032921030015    0.09360059432686   -1.02163574889485
H         4.69743315619739    2.56734602076508    0.03440630705665
H         4.98316110950976    0.03636968807685    1.22267850092618
H         3.70490831962997   -0.34525154461663   -3.99864118614518
H         5.32826304013654   -1.02239226229360   -3.83113839074676
H         5.04661596197789    0.79209111744481   -4.30086054792062
H         6.85208929197507   -0.34225387559690   -1.80729862236026
H         1.63467856811304    1.26059236644966    2.68370426519837
H         1.40637200652536   -0.24396767641641    3.49078383931913
H        -0.03296333183290    0.57316704367210    2.77837231624049
