30
 energy: -57.470599029716 gnorm: 0.152662751131 xtb: 6.4.1 (79825abcba525fcdf90b791dcacef51065a7a4e7)
C         0.84897909583177    1.81804116427739   -0.22862771208640
C         1.94659545832903    0.76647950536511   -0.12923976491114
N         3.23194063050617    1.23704659991430    0.40583049215081
C         4.29998152961959    1.72491573806668   -0.43207392038152
C         4.45675156022586    0.39830867609348    0.30028795839855
S         4.48134810427657   -0.90024831854134   -1.05142375074298
O         3.19175530911226   -1.46159355448920   -1.39322892742476
O         5.55593182992157   -1.81301608357491   -0.71579586243618
C         5.06400492173282    0.27799441050599   -2.29297155267324
C         4.92786296823001    0.02823740073712   -3.77987022200593
O         6.46692784263458    0.50215432271303   -2.02699051128793
C         4.30500258854642    1.54142532983501   -1.89838092116216
O         3.55744542895413    2.17883069062291   -2.62285134599044
S         1.38025708084746   -0.46115488583792    1.15247113065564
C         0.99252793770265    0.37071291417145    2.67477634823750
O         0.16363518114404   -0.97212512444369    0.55025004551986
O         2.41464718738244   -1.46026757502816    1.37657082014911
H         1.20339856487580    2.53152768898583   -0.97469577433401
H         0.84588826881474    2.32202193518056    0.74070017716890
H        -0.15836662360889    1.47181574148802   -0.48636777760146
H         1.89561020512569    0.26098903401663   -1.08736109039108
H         4.79015038248517    2.60479314358158   -0.02415299473056
H         4.88610398747863    0.09638603702877    1.24666823116327
H         4.40809478409908   -0.92352015571844   -3.93095039704917
H         5.86901325735496   -0.09113045706297   -4.32980419122455
H         4.37211340375799    0.82142771958549   -4.28873776118194
H         6.79139415679707   -0.35301858138197   -1.66738661985128
H         1.74391049880391    0.24841995685628    3.45580535034142
H         0.05485313616665   -0.01214503607649    3.07887094027306
H         0.89286074808908    1.42466064504928    2.40290742344163
