30
 energy: -57.470999399488 gnorm: 0.121725446401 xtb: 6.4.1 (79825abcba525fcdf90b791dcacef51065a7a4e7)
C         0.45758391772852    1.43026770477670   -0.26722945712321
C         1.83029462266595    0.77018107484375   -0.24792852323842
N         2.96263945139516    1.53622252275123    0.29135012237366
C         4.03678753965686    1.96748429089483   -0.56948123776068
C         4.22208427116337    0.74387089058194    0.31891755169196
S         4.57443303210493   -0.72224959212309   -0.79477941233327
O         3.42527593832017   -1.54964111956176   -1.09452940868202
O         5.84740792172986   -1.28133747687624   -0.38553997085215
C         4.85479919127396    0.34188386586101   -2.22942244837334
C         4.64992016876375   -0.43610207374552   -3.51181993443824
O         6.17591002458874    0.92165894817754   -2.14159693247285
C         3.95845907700233    1.55231537041978   -1.98554958589459
O         3.28062766063382    2.13749968326421   -2.81506064023053
S         1.73504337729595   -0.61694380242367    0.99199887603209
C         1.09722645230107    0.09377102737521    2.49127373439525
O         0.72821396071513   -1.58019286370426    0.58904051713538
O         3.05241503129075   -1.11703177562676    1.35648985404864
H         0.47510682361952    2.25826747950795   -0.97814651050116
H         0.24761974903026    1.81400997689692    0.73389972767505
H        -0.29680946830567    0.78031842753871   -0.72494545881230
H         2.09311439260019    0.40901227061881   -1.23615899522158
H         4.41099287142523    2.98461530390458   -0.49033487680235
H         4.87252763844281    0.88241813729323    1.17265314956332
H         5.36314643792144   -1.26221409263389   -3.59942045950036
H         4.75196265050528    0.34292877623973   -4.27676319348802
H         3.63231018958844   -0.80508808863160   -3.67079755484838
H         6.88750702363636    0.26968977775653   -2.32728472296271
H         1.85488456507027    0.81813149884860    2.79259368785699
H         1.10253059699966   -0.74397306508616    3.18931627216742
H         0.12336224129055    0.58921810281211    2.46347491588999
