30
 energy: -57.479055580854 gnorm: 0.124831559780 xtb: 6.4.1 (79825abcba525fcdf90b791dcacef51065a7a4e7)
C         0.80538622921103    1.91365061953039   -0.14210157801033
C         1.78921988404727    0.75068396052136   -0.14333051794754
N         3.09369659770418    1.21051155490137    0.35340344068177
C         4.18533959861217    1.65933841391085   -0.47586240236882
C         4.27299997130103    0.31138417973325    0.22851853427430
S         4.48892715405602   -0.91732627725435   -1.17063323524405
O         3.20810979960599   -1.42887972189856   -1.60973325232555
O         5.49018720593365   -1.94092539470938   -0.94648055186138
C         5.18992813711027    0.34851370569052   -2.25480692719993
C         5.18649640211382    0.02847932651342   -3.73445116334869
O         6.45591252064008    0.55340117718088   -1.58810537116327
C         4.27135190836854    1.52680494226395   -1.94514341513436
O         3.74654015879741    2.29124405965884   -2.73898862383388
S         1.28310126532672   -0.48552570334771    1.15522168074412
C         1.20914324493787    0.39044467569851    2.70019974032114
O        -0.02744093035595   -1.00320552960972    0.81110481604384
O         2.42067825689747   -1.38031108586601    1.30912890916078
H         0.82907954819363    2.40297821674114   -1.11744298415651
H         0.94598693444330    2.68355558504450    0.62018478981806
H        -0.21050773861253    1.53149815285180    0.00944482854968
H         1.90335905555333    0.08963377114977   -0.99544642721684
H         4.67827594188652    2.52415302850821   -0.04002002969357
H         4.83426541133088    0.13494254817112    1.13680578072131
H         4.40905937911055   -0.73252510777833   -3.85810615627767
H         6.03581658246711   -0.50016287069595   -4.18348633082149
H         4.94378725984569    0.97636536730855   -4.22389876927519
H         6.81483461010568   -0.33527061447698   -1.37050154702072
H         1.13205617643187   -0.36732118742255    3.48083160207719
H         0.33147164899992    1.03101281061662    2.79224167322311
H         2.17044453469959    0.90963818497891    2.66873530342976
