30
 energy: -57.471609401139 gnorm: 0.132358565624 xtb: 6.4.1 (79825abcba525fcdf90b791dcacef51065a7a4e7)
C         0.42092187747145    1.56508307009958   -0.25515881160828
C         1.70746066366028    0.75061026587983   -0.21187407559712
N         2.92140134323504    1.44848662988663    0.23440206265210
C         3.99404801615890    1.88737488547310   -0.62444464161667
C         4.21277153632739    0.71402934717814    0.32225347593992
S         4.49578769401010   -0.67514574050243   -0.90415356358354
O         3.31042729358320   -1.30947255314045   -1.44038023860394
O         5.50432973435986   -1.56643641009719   -0.36659877572570
C         5.05942885495996    0.37527400289737   -2.26360670489428
C         4.74241043057908   -0.37585620790911   -3.53917856691130
O         6.42441927353002    0.63985477429255   -1.86865800433259
C         4.21507420119771    1.63017195085532   -2.06275763417119
O         3.70522406191323    2.35990574802589   -2.89793792415598
S         1.63510682254817   -0.61879866425252    1.04911453828947
C         1.42662983086714    0.17629235637551    2.62522326321676
O         0.47801844315881   -1.43537287461565    0.73561380738159
O         2.92576853060467   -1.28507596499166    1.14226303565111
H         0.43324023115587    2.03869476809543   -1.23843596078856
H         0.26554722153340    2.27035800652448    0.56462695965211
H        -0.34544212362769    0.78313416432698   -0.20731003198410
H         1.71164228631006    0.18470952474629   -1.13699863613316
H         4.16921766416463    2.93856690172942   -0.41193539194328
H         4.69398588155419    0.72774154742433    1.29147023455005
H         4.41535490940118   -1.40687189432929   -3.36927279622836
H         5.58048481940014   -0.30795913751131   -4.24306863584966
H         3.95571814077589    0.23980196483698   -3.98531182980423
H         6.75325202381997   -0.22372832024557   -1.53398308035385
H         0.66197787530756    0.95148971323109    2.56266075368599
H         2.41455433297659    0.45679855092196    2.99186769025975
H         1.01472824850416   -0.63933024682183    3.22501400677802
