30
 energy: -57.476739361967 gnorm: 0.137591151344 xtb: 6.4.1 (79825abcba525fcdf90b791dcacef51065a7a4e7)
C         0.19893297303226    1.23442148855759    0.02087373865007
C         1.60865682299025    0.68339929392043   -0.15080869679530
N         2.79792111108304    1.52885421945763    0.02441093839440
C         3.79124554471247    2.02194649273186   -0.89807398526840
C         4.17516830122768    0.97742625951803    0.14230973070551
S         4.38256239457000   -0.57158061772991   -0.89284485569053
O         3.21502866290832   -1.17480800989132   -1.49945061416989
O         5.47441225829496   -1.38494623391045   -0.39603350773735
C         5.00124937647495    0.42977267623386   -2.26532576113981
C         5.33196393693154   -0.29796805817151   -3.55093929088230
O         6.21079702370782    1.05248007986841   -1.77704686695596
C         3.85582103157123    1.43769483962855   -2.25388737297924
O         3.18058999350843    1.55996917434643   -3.26339061365908
S         1.79690785721258   -0.63868445684112    1.14813868908300
C         1.68170131805745    0.02603078114047    2.79271529205950
O         0.67632184938732   -1.54721316203903    0.99716764399827
O         3.15303380048182   -1.15328438192367    1.02764358452034
H        -0.09745127065900    1.81962960127742   -0.85146883745654
H         0.02815608245489    1.87813478163069    0.88694022898113
H        -0.45604164512498    0.35616324376547    0.04767072048111
H         1.68133561942370    0.17511563100446   -1.10604800586780
H         4.06981557405879    3.05533219847394   -0.71002652001169
H         4.88174345484934    1.14629189635388    0.94441457954148
H         5.93402288881208   -1.19594009519264   -3.37774035776614
H         5.76786900501111    0.36484070153669   -4.30798040131770
H         4.33539009901143   -0.59095105201665   -3.89438678904436
H         6.78867823139055    0.33643860402185   -1.43171809812176
H         1.76866800011293   -0.71581493359396    3.58747271105777
H         0.72533839949095    0.53150802653333    2.93044475762900
H         2.49405997898772    0.73659111992049    2.96542745660356
