30
 energy: -57.481476400439 gnorm: 0.123013534779 xtb: 6.4.1 (79825abcba525fcdf90b791dcacef51065a7a4e7)
C         0.10974654668731    0.69166901382730    0.07737832961634
C         1.57760307996783    0.33341584644083   -0.11620223072309
N         2.53801368858155    1.43699702550728    0.02367565144223
C         3.30327840113647    1.99436485576440   -1.06468204749270
C         4.00117260812994    1.16562008530883    0.00627212723013
S         4.64410635824397   -0.33343730655601   -0.91754762344132
O         3.71043318143175   -1.38562674186665   -1.25834172655537
O         5.96734645393805   -0.60819314965810   -0.39403436507644
C         4.81943532540449    0.60954758522236   -2.45026582537269
C         4.97692821223795   -0.28273342595526   -3.66303597524995
O         5.96269830850489    1.45732466555961   -2.19845225103030
C         3.50486851461105    1.38210254446035   -2.39443633072982
O         2.63077239800875    1.33582944026929   -3.24520038348331
S         2.06355715505876   -0.78228229695350    1.29435597996954
C         1.65147650934607    0.15180672390362    2.74949114300049
O         1.26410520618315   -1.99038061723314    1.36718933492591
O         3.50729068010410   -0.96637538647354    1.28198779700521
H        -0.11680181410873    1.41303702406891   -0.70976699903804
H        -0.01778204266876    1.06166349109547    1.09739954204426
H        -0.45851593556715   -0.24425604937829    0.03080142610448
H         1.62937682685412   -0.20277417295414   -1.05744414299809
H         3.38444064189135    3.07725914165001   -1.10470584056958
H         4.48093594559007    1.44297894701957    0.93580727980507
H         4.17175193517757   -0.09502670423674   -4.38086881110054
H         5.00499742612673   -1.35184208470641   -3.42084035660908
H         5.90913674211143   -0.05225246758138   -4.18726914604109
H         6.47687167676761    0.95750274984242   -1.52635267239280
H         2.40612382482468    0.91767026438502    2.93251597571431
H         1.66586495962907   -0.57994608869012    3.55784593928966
H         0.63676621741724    0.55767952002419    2.76629522520189
