30
 energy: -57.473899712714 gnorm: 0.125637968155 xtb: 6.4.1 (79825abcba525fcdf90b791dcacef51065a7a4e7)
C         0.74361827087061    1.97176153312976   -0.01627056116810
C         1.74667500672557    0.83063457411884   -0.12639808938072
N         3.07123058514719    1.31500900952848    0.28685661452252
C         4.20464696992354    1.78040758205325   -0.47444707317570
C         4.29806323554874    0.47271993123603    0.30146779447991
S         4.39069037572744   -0.86473971062198   -1.00872362070733
O         3.02669032491571   -1.22067169513270   -1.33706053260382
O         5.43499964429213   -1.83267903161430   -0.73847764032108
C         5.01287179939516    0.23925134018280   -2.29840570281098
C         4.84726546925228   -0.18846747707718   -3.74111565258551
O         6.42469754721419    0.27653901234046   -1.99092564577162
C         4.34827474317081    1.56206024501218   -1.92890416818081
O         4.15485883262467    2.50360880680955   -2.68127464413806
S         1.53204869684504   -0.57781107358885    1.07394544466854
C         0.90418051685776    0.29431696026011    2.48989930701707
O         0.47146074576456   -1.41976622689369    0.55414318987504
O         2.80805605561102   -1.18514235840844    1.42231831738767
H         0.52653552538228    2.32365910458651   -1.02638783644313
H         1.12287282900630    2.79873342221730    0.58861471412425
H        -0.24067290363955    1.64448713597027    0.33743797223126
H         1.83184501499322    0.33294394525029   -1.08617240359363
H         4.57099003976788    2.73950120993813   -0.11838347337942
H         4.85396322753888    0.20725495173455    1.19120920730285
H         3.82185206042284    0.07146734100593   -4.02358310697237
H         5.05599245311771   -1.26497578659091   -3.73943366835448
H         5.58370794824323    0.41298926047981   -4.28227819868231
H         6.55880743682859   -0.59345038579218   -1.55383637726865
H         1.20178293665690   -0.23248263471747    3.39734220295956
H        -0.18445328014904    0.32715553124168    2.54379520030374
H         1.29326341370829    1.31103234439147    2.39214242709795
