30
 energy: -57.474678928095 gnorm: 0.132210183931 xtb: 6.4.1 (79825abcba525fcdf90b791dcacef51065a7a4e7)
C         0.53059291272313    1.34436284076305   -0.34073301511142
C         1.73236251868225    0.43016291046246   -0.13971082740999
N         2.88932405947644    1.26079629071188    0.22268909716559
C         3.79305183088075    1.87389199381122   -0.71975539868478
C         4.30025268803904    0.78745063729793    0.22003710966300
S         4.70539168331518   -0.62487385000188   -0.94408554756278
O         3.52732535683127   -1.42346534939860   -1.20752471074822
O         5.98599598459968   -1.29034710720155   -0.81097192261484
C         4.87347519008141    0.50071405043144   -2.34907154373483
C         4.85119297771495   -0.14603464202871   -3.71764762066815
O         6.14082215339125    1.14199634552967   -2.08116298933487
C         3.84253969562281    1.61170096965855   -2.17321909543802
O         3.14967757361114    2.07267501941430   -3.06620832962638
S         1.64991399556252   -0.73415590666509    1.31224376429718
C         1.22032235541060    0.25289584885831    2.72678642997161
O         0.56494774453581   -1.67533971974130    1.10988040362661
O         2.93040311155682   -1.37904351934116    1.56299726451741
H         0.76723925213508    1.99931937221262   -1.18116396501173
H         0.24931013491643    2.05147198662763    0.44315433393182
H        -0.30696397401691    0.73285250701897   -0.69513525640525
H         1.87361276063424   -0.21431049538085   -1.00041927478850
H         4.04267908031241    2.90389803602142   -0.47970766799937
H         4.91845509648515    0.89513311154996    1.10172101678599
H         3.88746260028113   -0.11291695187678   -4.23625499547504
H         5.18825345377587   -1.16610319353450   -3.49789706047824
H         5.59453360119100    0.36005925946067   -4.34075941911272
H         6.70747796596043    0.36442490360105   -1.88066888322944
H         0.20699866952142   -0.05497825604543    2.98741310961844
H         1.13325063069647    1.33137021478402    2.59107261336439
H         1.87797672334949    0.13355462188928    3.59159882845601
