30
 energy: -57.481080313179 gnorm: 0.122603418064 xtb: 6.4.1 (79825abcba525fcdf90b791dcacef51065a7a4e7)
C         0.13449966461713    0.62209153193747   -0.01585105878995
C         1.59882572260706    0.21523127534352   -0.11897964473489
N         2.47553717306653    1.38762676241927    0.01029379825366
C         3.27401760804736    1.98292114175619   -1.03319317540369
C         3.93955134108332    1.12124727973786    0.03235835796588
S         4.52001021233291   -0.38886490086918   -0.91453577541765
O         3.53916313400170   -1.36516485104067   -1.33852427336976
O         5.83688311006752   -0.79713773482158   -0.46767973730863
C         4.71883751949208    0.61258993260730   -2.40676288889344
C         5.16126734424671   -0.19389792027711   -3.60909979736232
O         5.75866414980647    1.57424029910086   -2.11836134065635
C         3.40522024807465    1.38829526450928   -2.37965375344791
O         2.62014164145302    1.47943498818402   -3.30988481410060
S         2.16407146897549   -0.77784322255620    1.35238314812334
C         1.83854401399988    0.22904690005446    2.78065317057215
O         1.31426812568035   -1.94852448390718    1.45854024457520
O         3.59740794444705   -1.01166379988190    1.25602852009874
H        -0.24547026195016    0.70320851185640   -1.03581999173802
H        -0.01599508091615    1.57055965739973    0.50507338322530
H        -0.41712359206065   -0.22796855189804    0.40147017973741
H         1.68837812721433   -0.50363998955260   -0.92602429006751
H         3.32649997869584    3.05738613539263   -1.18688067101708
H         4.59952071471506    1.40369530173160    0.84217312019461
H         5.92653405597621    0.32562683560105   -4.19500722923788
H         4.32667894478765   -0.43511704307571   -4.27821522915002
H         5.60745754245977   -1.10004781434266   -3.18866988718475
H         6.53925184874228    1.22416087331824   -1.63458320593174
H         2.65914696732090    0.92395231201535    2.96301238814352
H         1.77709950922911   -0.39776344218820    3.67084418973983
H         0.93431163837719    0.78982850560486    2.53057341890412
