30
 energy: -57.465108834511 gnorm: 0.123847806164 xtb: 6.4.1 (79825abcba525fcdf90b791dcacef51065a7a4e7)
C         0.43910159866849    1.27483403615808   -0.21455163309539
C         1.76091236447529    0.52614207871090   -0.10186500205647
N         2.90963465144063    1.37760772927573    0.23767717734939
C         3.91910679781934    1.88459040396278   -0.65939940199327
C         4.20990899003409    0.65513124015485    0.19188300144792
S         4.64208675959268   -0.64312554260821   -1.08941762567133
O         3.57143903082852   -1.51238288437513   -1.52884221021223
O         5.91428742046664   -1.26107917472753   -0.77293689118304
C         5.04877879229788    0.53027143428766   -2.40354355669914
C         4.83092582535934   -0.18865479770454   -3.71787456579977
O         6.37597018186807    0.95854950294756   -2.02363934484148
C         3.98542624089858    1.58283704384978   -2.10449337098283
O         3.40947867889775    2.27212029658944   -2.93102694500722
S         1.65088363345832   -0.66730623063620    1.32438287806845
C         0.76315848881087    0.18742538754948    2.60544846058532
O         0.75352819491050   -1.76116331962275    1.00475880000324
O         3.00185316896413   -0.94076865282413    1.79183270960742
H         0.27727172108244    1.72873001831721   -1.19387959451103
H         0.60652585299792    2.05911112865605    0.52739262684212
H        -0.38688025643456    0.61685734435991    0.07848082649965
H         1.87373872062081   -0.22075065082374   -0.88002828661664
H         4.16196621953928    2.91829601458173   -0.42848573056742
H         4.99014833856528    0.55452381570911    0.93501215292897
H         4.07956176676514    0.24781328077558   -4.38403843404155
H         4.35906574499457   -1.16778486725568   -3.57264270007634
H         5.78940202428736   -0.28364834919043   -4.23677169874820
H         6.79179335128998    0.29869499318190   -1.42564506244891
H         1.12749504412297    1.20650173888575    2.74065159549993
H         0.84278010367334   -0.38530325221566    3.52997481867343
H        -0.29352891917290    0.22521969073004    2.32861747766922
