30
 energy: -57.472581297290 gnorm: 0.126663319375 xtb: 6.4.1 (79825abcba525fcdf90b791dcacef51065a7a4e7)
C         0.40499431082141    1.48058506978917   -0.03902653475027
C         1.66983860088317    0.63701561280631   -0.13379532848528
N         2.90068444896313    1.34628010611676    0.24277857567171
C         3.91118861875707    1.78310664106743   -0.68935647106990
C         4.19740888977554    0.61602644966313    0.24702981043951
S         4.71837728668998   -0.70867386625979   -0.97269991086343
O         3.52850916256239   -1.36385692875471   -1.47263775544737
O         5.88558821710756   -1.44140308531689   -0.52409339559390
C         5.02554151122064    0.45724169747316   -2.32009624291854
C         5.04347297852369   -0.08621775676301   -3.73293421322992
O         6.21377625657747    1.13957096213533   -1.85997531817124
C         3.84553761362308    1.40270278046667   -2.11579706796427
O         3.09295165936437    1.84724014362738   -2.96784499603292
S         1.56593292177869   -0.70261046717787    1.15663629566508
C         1.37684325653695    0.32027328946714    2.59806094439239
O         0.42040043815367   -1.54150729239099    0.86009437381589
O         2.86957388356701   -1.31615416496092    1.36277726895713
H         0.14042116904332    2.09025786668307   -0.90481742140203
H         0.46806749322707    2.14661009740453    0.82470673278604
H        -0.49394071476759    0.85668910322854    0.02194079685818
H         1.71777898394580    0.19689272181053   -1.12380047492686
H         4.37035180470952    2.75376271603981   -0.52248806705148
H         4.82347322117861    0.63188078711910    1.12959898185314
H         4.90923223745974    0.73060059236546   -4.44960278306652
H         4.21037626438428   -0.78404110248510   -3.87933218481743
H         5.95307335796294   -0.65930307261515   -3.93580117335157
H         6.72666139661752    0.34838513131447   -1.58268871907143
H         0.34856388469034    0.60608339448672    2.82276461652279
H         1.85599281033016    1.29354515786253    2.48731683238159
H         1.79901835528408   -0.24436433499513    3.43328823057070
