30
 energy: -57.475772302766 gnorm: 0.125119098361 xtb: 6.4.1 (79825abcba525fcdf90b791dcacef51065a7a4e7)
C         0.54382308352229    1.31262042422624   -0.33106292060226
C         1.71096378302175    0.34946477278084   -0.15631909822243
N         2.91146435402807    1.08436172796021    0.26625675720317
C         3.84505610969811    1.75856060508346   -0.60246308402977
C         4.31027253143427    0.57702978093333    0.23918772191750
S         4.88560924125687   -0.64116173341848   -1.06426028235160
O         3.81950033743047   -1.54696329294717   -1.43564174152845
O         6.21818908026745   -1.08327566042077   -0.70469455045556
C         4.91851189391257    0.51840608106927   -2.45116537578612
C         4.83769888197616   -0.09690547979671   -3.83197737683556
O         6.11943142480700    1.29759177977022   -2.25154516855198
C         3.81145074353045    1.49094007352006   -2.05539111176896
O         3.23380190112351    2.16335607453804   -2.89453549183117
S         1.43058013592873   -0.73828935250422    1.32987879406605
C         1.28708205366981    0.42852813573169    2.66318159097483
O         0.20179400537063   -1.50894199863305    1.31944760417200
O         2.61374866605995   -1.51974470020784    1.65828326421347
H         0.51586677971729    1.85165065663290   -1.27972438878792
H         0.61716146150295    2.03715384278501    0.48335437396349
H        -0.35478057379618    0.73023839136521   -0.09784626155830
H         1.81433212081990   -0.39193587366651   -0.94102076633339
H         4.03676966484529    2.78892686648659   -0.31533872768253
H         4.77358907259705    0.70218399433750    1.20914157778124
H         3.84729382029125   -0.51379646949329   -4.04204010105026
H         5.56075456596511   -0.92018662412748   -3.78909896089256
H         5.02364006024957    0.60110272107548   -4.65366166137794
H         6.80875664199031    0.69982893629899   -1.88627215854940
H         0.28499550583427    0.85788963886924    2.69494435663284
H         2.01304305688671    1.21604184155413    2.45846357019087
H         1.44218022430992   -0.12558788228377    3.59245661841632
