30
 energy: -57.473418815451 gnorm: 0.120480728058 xtb: 6.4.1 (79825abcba525fcdf90b791dcacef51065a7a4e7)
C         0.93954389907630    2.07214963644835   -0.17509805152257
C         1.93276347064527    0.91928603928844   -0.24468274454888
N         3.19513685999995    1.37988592548396    0.35038589961353
C         4.34264944980796    1.77598645799693   -0.42880026021485
C         4.41170036083680    0.52756788241530    0.44154479889555
S         4.45025095114329   -0.84284712070714   -0.83691372045357
O         3.18463194351424   -1.29988678668245   -1.37012298598138
O         5.46422672431742   -1.83120328335402   -0.52784011244149
C         5.04186531920648    0.24196260360647   -2.15690089385972
C         4.69903545437856   -0.22612141900745   -3.55516620390357
O         6.41620180949112    0.48764409510782   -1.78270025756474
C         4.23482147932569    1.50639808073583   -1.87774648698813
O         3.39710718591992    1.91902495341184   -2.66384990435879
S         1.49122385980052   -0.51995450058020    0.85269487566820
C         1.18822725966466    0.13416414671451    2.47752500644982
O         0.17890038248892   -0.95297750018660    0.41198200003455
O         2.59210481186601   -1.44474505095857    1.07904260442268
H         0.95213065742559    2.62074951915429   -1.11858809983410
H         1.32704689280132    2.73676306334713    0.60061655144813
H        -0.05713784426964    1.68727957592488    0.06892636061651
H         1.99817544086971    0.55945196057164   -1.26564177764931
H         4.77708269857050    2.70157486826134   -0.06082883890399
H         4.78235148398767    0.43532169847336    1.45408845133901
H         3.75454046338880   -0.77993402777902   -3.54827871803657
H         5.55098373787743   -0.73004177498307   -4.02706483727603
H         4.43235545024807    0.60575171721315   -4.21381899084578
H         6.95718352496658   -0.31747785031411   -1.94091365915912
H         1.87249796484381    0.95674944664084    2.68886513384977
H         1.21081658112183   -0.72179196547940    3.15275499666347
H         0.14771945401109    0.46745239513770    2.50776621157221
