30
 energy: -57.476237505970 gnorm: 0.126177399875 xtb: 6.4.1 (79825abcba525fcdf90b791dcacef51065a7a4e7)
C         0.66812429996703    1.31751299879970   -0.45358312832279
C         1.86286101672339    0.40138627812570   -0.22176944791470
N         3.00700054966097    1.17928086489636    0.27388217402617
C         3.93566959687665    1.87106527397073   -0.58624549098508
C         4.42377480701253    0.72398784352328    0.28941639785606
S         4.84735492171531   -0.59928676809139   -0.96895715271394
O         3.72839611209285   -1.51618691522789   -0.92190252875993
O         6.18685111049919   -1.14138186207812   -0.85758336600340
C         4.84297523553223    0.48548294375964   -2.41548448668308
C         4.64523018693520   -0.28492049687061   -3.70356689230662
O         6.03649360432922    1.28867828554766   -2.27556505417835
C         3.75169116690026    1.46558727295284   -1.99531953521065
O         2.86350774857370    1.93589219566432   -2.68808803710884
S         1.56200741953463   -0.70868869853464    1.24377783530687
C         1.05324725605512    0.38607823991210    2.54853817596535
O         0.50053141832709   -1.63634706757424    0.90223967297516
O         2.81526176091624   -1.28876410516816    1.70342531669523
H         0.78359692665212    1.91369386403853   -1.36051652363728
H         0.61936458094009    1.88465209522089    0.47892878138157
H        -0.27091040470355    0.75384349773745   -0.49279917359532
H         2.01399390575791   -0.25495196414609   -1.07176682856729
H         4.05695152513218    2.93290012428636   -0.38965785486655
H         4.90965072945709    1.03167000426806    1.20614571453070
H         3.57744517812909   -0.44566097364719   -3.88474168285720
H         5.20955970374815   -1.22479040312452   -3.67873388202942
H         5.08479061087068    0.33728952357587   -4.48880313504557
H         6.78351284763316    0.65984536870093   -2.16400584751688
H         1.53313039225012   -0.17976760070084    3.34795564084019
H        -0.01994876082734    0.43183475033365    2.73632351610051
H         1.56679369347957    1.34543414710177    2.44578419623004
