30
 energy: -57.476687651734 gnorm: 0.123196313573 xtb: 6.4.1 (79825abcba525fcdf90b791dcacef51065a7a4e7)
C         1.05898723405940    1.86888914115818   -0.30979426189037
C         2.02801299591985    0.70872582763386   -0.12156093486713
N         3.28160958549283    1.09821827746782    0.53922403089711
C         4.29918007348124    1.67832776985144   -0.30269942816341
C         4.50633663933426    0.29030805212913    0.29001037025925
S         4.53161936898206   -0.93450135453457   -1.12885618185852
O         3.22554656785020   -1.49793669328401   -1.39663091377388
O         5.74571731091525   -1.71008913383758   -0.97089716649854
C         4.94856951197479    0.37045708112819   -2.30886545947962
C         4.88561431885755   -0.12695185753856   -3.73729180829145
O         6.33330802202846    0.70888702207273   -2.06980326302983
C         4.11551830116498    1.52540754212747   -1.76099765078247
O         3.32308591410669    2.15499823028821   -2.44338406990068
S         1.33528608512064   -0.49565847500080    1.11948542697995
C         0.96282872421700    0.50524378236896    2.54047848980391
O         0.02400617336419   -0.91277498732374    0.66069519771148
O         2.33155645556447   -1.47669278031116    1.52374619489491
H         1.50240471915533    2.56858560547768   -1.02049780075855
H         0.97926876175227    2.38493857109034    0.64986227716705
H         0.11340875229075    1.41568595530510   -0.62844074608232
H         2.21011584320315    0.12808124324225   -1.01922849381779
H         4.84535320651700    2.56715057531837    0.00150121059749
H         5.07127215943480    0.07320560727264    1.18714506073370
H         3.86287828328476   -0.43363884524477   -3.97973917284187
H         5.64753765204804   -0.89932775866717   -3.89650306791286
H         5.21173854115344    0.62899731858555   -4.45780445102242
H         6.80230914126829    0.05810395961055   -1.50197106976193
H         1.87424466404203    1.05823251255462    2.77083055047437
H         0.72413478911939   -0.09452087181172    3.41934949740478
H         0.11245357762591    1.13184691051671    2.25961782970137
