30
 energy: -57.479649117496 gnorm: 0.131255957586 xtb: 6.4.1 (79825abcba525fcdf90b791dcacef51065a7a4e7)
C         0.71327566986011    1.94678623729114   -0.08763724738964
C         1.75217394519843    0.83863218728967   -0.20212109261251
N         3.05945271081304    1.25886158322205    0.32159186035481
C         4.18173697569619    1.72807781419320   -0.45373105587584
C         4.28404285481947    0.41328410132463    0.30894060949343
S         4.36730204835028   -0.83736644489691   -1.08494636733378
O         3.13182482907881   -1.14597775554353   -1.77294631768960
O         5.28533719609918   -1.93759083624495   -0.86760099689544
C         5.22163096829245    0.34007825353092   -2.15869304041868
C         5.32317222964460   -0.16156546001229   -3.58341189163227
O         6.49871974091869    0.57186394186616   -1.52268520727282
C         4.27031792490559    1.50724998707661   -1.91220239464272
O         3.61608645445060    2.00773662410123   -2.81302368764040
S         1.35979768877188   -0.45726338738299    1.07745059851983
C         1.43964589289365    0.31715565953991    2.67546514916243
O         0.03891870530948   -1.04151733134202    0.94382534875322
O         2.39911775628095   -1.47225560059261    0.98792779148870
H         0.45780210718688    2.30092995382024   -1.08794181163800
H         1.07869896486960    2.76350734031762    0.53928793368786
H        -0.20849097973029    1.50336791100234    0.30577578172221
H         1.80338251749389    0.25480500313041   -1.11461224196542
H         4.71211779929168    2.64824319645446   -0.22385912044205
H         4.83523757289815    0.08477085531023    1.18037612023880
H         5.52462807093932   -1.23712624411696   -3.62097749425768
H         5.98283359518983    0.44190280802848   -4.21832358237854
H         4.29803604578572   -0.03686109670416   -3.94465870366430
H         6.88963503706618   -0.32878159145654   -1.56669541364091
H         1.89613052158706   -0.42881677260311    3.32714339576043
H         0.40114906037612    0.59174554494195    2.86316545985769
H         2.09358391585051    1.18901849252368    2.59256555322753
