30
 energy: -57.477079923570 gnorm: 0.125354888654 xtb: 6.4.1 (79825abcba525fcdf90b791dcacef51065a7a4e7)
C         1.15010140212465    2.11457936374240   -0.05157160277382
C         1.99440995639108    0.84691162964636   -0.02742260724777
N         3.29757907206500    1.30408893778165    0.47515568231496
C         4.37165994944971    1.70018442523576   -0.40249464825567
C         4.45971318006325    0.38208749911931    0.35624390510843
S         4.44462825600638   -0.85920013652360   -1.04837606035394
O         3.09457589568181   -1.28439391290529   -1.35096110579899
O         5.58413276456745   -1.72799186451105   -0.83100158151876
C         5.02804944559691    0.27820450545883   -2.32709269526159
C         4.64260362091953   -0.19632495757241   -3.71202379628289
O         6.44360985675606    0.43131563616729   -2.07823127333108
C         4.22456157092617    1.48727453704443   -1.85741100455724
O         3.53467821629583    2.14675857804076   -2.61841458561368
S         1.46844236396558   -0.55333141729379    1.08311134772771
C         0.38418077283818    0.26532749398455    2.22937723725256
O         0.83836863771291   -1.61709176468109    0.32459259949948
O         2.64613353640646   -0.89547187394344    1.86694368927778
H         1.45934351299986    2.73538882855115   -0.89434005125290
H         1.33331519239720    2.68068768823993    0.86470171743444
H         0.06712858903948    2.00711651075013   -0.18068008391809
H         1.92169185268861    0.31506832023657   -0.96974492895964
H         4.90276307174375    2.55183151009632    0.01400978290148
H         5.03335787177361    0.16694033477093    1.24830885078665
H         5.32638101753843   -0.95653785242688   -4.10362494145860
H         4.63987756546620    0.68017200760039   -4.37095138054708
H         3.63610856883376   -0.61873534547483   -3.63791706910949
H         6.69512451426812   -0.32475191041204   -1.50289112554608
H        -0.04913680511076   -0.56179037114280    2.79298129742233
H        -0.42018799492434    0.81946539447866    1.74457959342685
H         1.00320184025678    0.90965063314325    2.85891094627167
