30
 energy: -57.474721987099 gnorm: 0.133176611589 xtb: 6.4.1 (79825abcba525fcdf90b791dcacef51065a7a4e7)
C         0.62445868371248    1.97157782553609    0.16139898668618
C         1.75842667204968    1.00664038155271   -0.16021243254707
N         3.07706743831951    1.53157652994804    0.22119857205051
C         4.17083724188401    1.89698341619622   -0.64537911440402
C         4.30739865130748    0.69653069408157    0.28256555744017
S         4.29821355822833   -0.76229720872221   -0.89459907592148
O         2.97599964126831   -1.14401052276200   -1.34296738037089
O         5.26300299684469   -1.71744061288970   -0.38724942056537
C         5.09529866686453    0.19923397379258   -2.20200067962208
C         4.89566711516510   -0.44141564115774   -3.55901805731808
O         6.44736874096635    0.36206466361042   -1.71766713363745
C         4.33430147466500    1.51441696449316   -2.06336096223859
O         3.93750512725221    2.19197532235805   -2.99794751513921
S         1.59033653515163   -0.53751793352209    0.86834431117227
C         1.16703002542334    0.01528077894590    2.50387978399923
O         0.51723223746912   -1.41223235421350    0.43561862835971
O         2.90474170818561   -1.11955858042078    1.09632995912418
H         0.30641430927373    2.55063571754714   -0.70741253999177
H         0.79595652044873    2.65561224399314    0.99583780122154
H        -0.12991848359237    1.20261401051237    0.36303508987475
H         1.56817852039987    0.62787416585899   -1.15844005253217
H         4.71998978046628    2.78015651147672   -0.33028230011270
H         4.83724594323756    0.46270076507211    1.19674378474596
H         5.80123465253497   -0.24325359694080   -4.14168937996192
H         4.10593815645791   -0.04650917946763   -4.20926184304192
H         4.74380746943102   -1.51654297554887   -3.42487449398966
H         6.61691765411587   -0.51797589329556   -1.31431142469028
H         0.10043203369995   -0.16985096594553    2.63666752383179
H         1.39063457679511    1.07147331267321    2.65738880360782
H         1.74875957604164   -0.52621026486917    3.25423320721370
