30
 energy: -57.475292142324 gnorm: 0.130970506270 xtb: 6.4.1 (79825abcba525fcdf90b791dcacef51065a7a4e7)
C         0.53735507137311    1.39005290109607   -0.35348144947889
C         1.78700818402113    0.53068172267046   -0.21110907620533
N         2.88821944014158    1.35981814252179    0.29851050608712
C         3.85967376582025    1.92440171024109   -0.60610748407536
C         4.23911086201325    0.73614149870282    0.26846819950006
S         4.67061360421403   -0.61481798824310   -0.95737577318827
O         3.64087964198052   -1.55835036010130   -1.33735403964732
O         5.92241056042493   -1.09862210774886   -0.41014710256140
C         4.86713249136334    0.52781846900023   -2.34480075891489
C         4.72244023592114   -0.23648277414504   -3.64352652117405
O         6.17045156943680    1.04514207554274   -1.99419846773557
C         3.77238816090349    1.54331694339928   -2.03120592799382
O         2.86537540717092    1.90656331386558   -2.76289212139047
S         1.64604133241425   -0.73454241386821    1.14901754641506
C         1.39010274476554    0.29719384509697    2.57371640239454
O         0.55352781601194   -1.66183901646794    0.92437362144886
O         3.00502405915019   -1.24785487346263    1.23893970732069
H         0.74809188200234    2.30572985954580   -0.90883668136654
H         0.22401601343765    1.71809475196117    0.64040481232968
H        -0.20497150049979    0.70040289711399   -0.77107156995498
H         2.11059279548711   -0.12359312328756   -1.01319015221438
H         4.15519343256523    2.92641127363351   -0.30695185911608
H         4.95559855631277    0.85036543387313    1.07142183247111
H         3.73831802983643   -0.71099755870119   -3.57165278536247
H         5.55289701606623   -0.95167259522652   -3.60767991388628
H         4.72733722434856    0.43872872351120   -4.50435175675565
H         6.74410564151883    0.24962698955557   -2.05737122640210
H         0.44642371076305    0.84399114863589    2.56922055735816
H         2.23769770474753    0.98162354974428    2.52633026256240
H         1.49032752065102   -0.35754743188740    3.44315353931946
