30
 energy: -57.468868935530 gnorm: 0.146040462819 xtb: 6.4.1 (79825abcba525fcdf90b791dcacef51065a7a4e7)
C         0.57082617018127    1.37252493088374   -0.35093861351910
C         1.83954941899563    0.55333313165610   -0.15172078856750
N         2.99147352815388    1.35568943326579    0.28318235367859
C         3.92062750886807    1.95539391222241   -0.64301376735773
C         4.36274060430077    0.78081186881078    0.22053154680940
S         4.67544394033376   -0.64840129044095   -0.95145223201930
O         3.44405462106456   -1.35240647506409   -1.23962907229611
O         5.87329670048168   -1.38734544402639   -0.60557425968646
C         4.92668812506783    0.46292437715364   -2.35538152388886
C         4.86985590725354   -0.09759890449792   -3.76050237068042
O         6.16753560366748    1.11095637436169   -1.99546713755879
C         3.86537695164075    1.51660849679515   -2.05303670243281
O         3.01423335375611    1.71085290023335   -2.90615360052223
S         1.61609563777099   -0.65998054156389    1.24418269715212
C         1.04699432885341    0.19004969242177    2.69791011293695
O         0.74275410766777   -1.69429745888165    0.72322900216945
O         2.92530695668133   -1.12375472407117    1.67925620486724
H         0.53046808402926    1.76985618162661   -1.36671064989411
H         0.50740500572021    2.23155253679086    0.32111201607679
H        -0.22964751278174    0.62936487799537   -0.44039471298553
H         2.00891090814948   -0.10896435258972   -0.99362064057806
H         4.18347303621602    2.99605148145509   -0.47332829276283
H         4.90253003126157    0.89322186905812    1.15172843017558
H         5.88298921687143   -0.35819701379217   -4.08373008240431
H         4.52810684218402    0.55392062888192   -4.57362585304103
H         4.25352450224984   -1.00061155844636   -3.71977916813497
H         6.76885060903666    0.33452326524334   -1.95691930701160
H         0.13396890657393    0.66668871137575    2.33911010333632
H         1.75870007165674    0.85918151589537    3.18251739910827
H         0.81511494074321   -0.48816740380416    3.52308015633809
