30
 energy: -57.471438252084 gnorm: 0.136874883297 xtb: 6.4.1 (79825abcba525fcdf90b791dcacef51065a7a4e7)
C         0.39978062231903    1.51632715102569   -0.13469611373842
C         1.67316578495160    0.68078613682775   -0.16267923918908
N         2.83691986939742    1.55888910519247    0.02294710614856
C         3.93830584214469    2.01505080323069   -0.78925808514585
C         4.14936951477335    0.88176885930189    0.20670457117824
S         4.40052229543314   -0.60666481819430   -0.90481110937121
O         3.22858933947015   -1.32040255720349   -1.36539816237422
O         5.52740030085967   -1.32993461289131   -0.35024097950953
C         5.01739690654110    0.35806240548242   -2.30407982395814
C         4.92771331349242   -0.49860438948307   -3.54901343604153
O         6.30529707140623    0.79122852661101   -1.81126487177154
C         4.12657385892750    1.59176910701030   -2.19251775382522
O         3.67116587534221    2.14541044590042   -3.18048009504595
S         1.69406356468913   -0.69072401624551    1.09792831297367
C         1.31021930752644    0.07475463523862    2.65563724523866
O         0.67404926855909   -1.66645811569746    0.76409681708290
O         3.06567697856984   -1.13421829191280    1.29892382657843
H         0.34526391980733    2.07336590982741   -1.07172838671322
H         0.51957564759992    2.24482104326301    0.67062899076416
H        -0.46015370820186    0.89509692608826    0.14031903174176
H         1.67683632504225    0.02536067113734   -1.02669348784789
H         4.16926283929535    3.05197138124595   -0.56055804376725
H         4.72215235702912    0.92001465418581    1.12408853200267
H         4.25743370897031   -0.00328835739838   -4.25909365085795
H         4.81762006977013   -1.52349437454771   -3.17495472471703
H         5.92701344053865   -0.58992299618525   -3.98492030867067
H         6.64089111158881   -0.03420825184437   -1.39660258891608
H         1.64948340680827    1.10929386457602    2.59109209025103
H         1.96348896306065   -0.35377606543523    3.41636510659036
H         0.29562474900630   -0.18021827053451    2.97224233045360
