30
 energy: -57.473888337521 gnorm: 0.137760831869 xtb: 6.4.1 (79825abcba525fcdf90b791dcacef51065a7a4e7)
C         0.45123113415055    1.35357989801130   -0.06252079585656
C         1.76471620885686    0.59361767053010   -0.19532139519131
N         2.94421039227863    1.35274241660657    0.24327708617110
C         3.86900635417905    1.95641244706755   -0.68470284299851
C         4.30313535827124    0.75417913604913    0.14414246670735
S         4.60868849518807   -0.65892814339885   -1.04906526669730
O         3.42297211215598   -1.45911243846511   -1.26990593971503
O         5.87356135193996   -1.13268112846605   -0.52354073966231
C         4.95122526207106    0.53460873803836   -2.36334229622590
C         4.93217950353654   -0.18170668330858   -3.69687531851373
O         6.24572841558955    1.06017226439838   -1.99289545103702
C         3.81496200288774    1.51678997326623   -2.09451178137723
O         2.94828088740928    1.71078927700399   -2.93189631911556
S         1.71186214883223   -0.68026342773041    1.16300168583946
C         1.10518479902143    0.22382603386430    2.56810521854322
O         0.79638483206633   -1.77935531020344    0.92252719195720
O         3.10295700801188   -1.03129040099767    1.40804226317162
H         0.11652249223201    1.75966734826788   -1.01874087270382
H         0.53874547533014    2.09146958066480    0.73839291839997
H        -0.27637475208758    0.67534194238883    0.39751216409000
H         1.86838946206095    0.03044506941421   -1.11630191066154
H         4.03861110310985    3.00420075174523   -0.45184448450670
H         5.00711357801435    0.83090394952380    0.96247261117220
H         3.87514267965479   -0.33642890684546   -3.93679367464583
H         5.38959343860769   -1.17235125698412   -3.58808311388468
H         5.42992119840033    0.40875855130429   -4.47183250770319
H         6.72945530895434    0.32551000025095   -1.55449643849830
H         0.12708518021899    0.68343048782180    2.42105929174312
H         1.91286008720671    0.91133242917370    2.82128947616440
H         0.96311277496817   -0.44644103902505    3.41969765131373
