30
 energy: -57.473891255012 gnorm: 0.125492694384 xtb: 6.4.1 (79825abcba525fcdf90b791dcacef51065a7a4e7)
C         0.87016506758625    2.03860778361864   -0.10793686661166
C         1.83229205409658    0.86363338587012   -0.22696801231530
N         3.07099919241873    1.37287843167681    0.37811038771166
C         4.14989684347592    1.77606524679097   -0.49035476503554
C         4.28439250565949    0.51171706419860    0.34878268199052
S         4.31876819799362   -0.82825153812742   -0.96166848118696
O         3.10427328065304   -1.13732750882144   -1.68586663803247
O         5.31517054423865   -1.81518278948846   -0.59605895595059
C         5.10792698926946    0.30056875142484   -2.13306892307983
C         5.09219016437132   -0.29462521519484   -3.52493003026874
O         6.39730242220064    0.58488200154674   -1.54496751145380
C         4.16688223721211    1.48585578073793   -1.93923023335693
O         3.32311754435147    1.86769004654959   -2.73437074207909
S         1.50188221099716   -0.55789287534035    0.93091825372457
C         1.48478770251328    0.20389870677755    2.53688601898772
O         0.14001262568669   -1.01338601005592    0.72654872591071
O         2.66768354959027   -1.42921464144497    0.92017826077518
H         1.35465872748779    2.90990143153339   -0.55224194828613
H         0.58006139449376    2.29865204978795    0.91275876142012
H        -0.06384983669700    1.83542096526569   -0.64401396393877
H         1.82566507047357    0.49613012392388   -1.24726896119591
H         4.58404946811638    2.73896732097444   -0.23505036054369
H         5.01225788635479    0.34838498722730    1.13279227227413
H         4.04674078028022   -0.44190521792325   -3.81505210288590
H         5.42913068437563   -1.32687035606140   -3.67783842766395
H         5.51609331765923    0.34688580598195   -4.30321298601987
H         6.86429287339783   -0.23099364169125   -1.25829540436496
H         1.17220232381272   -0.54534341684678    3.26521578224185
H         0.81322027065256    1.06177490875087    2.49049324483965
H         2.52256283119834    0.42130212367498    2.80223600870158
