30
 energy: -57.470917889799 gnorm: 0.135330976833 xtb: 6.4.1 (79825abcba525fcdf90b791dcacef51065a7a4e7)
C         0.84079040575382    1.41414830732570   -0.30959895859171
C         1.86473009386139    0.31614636544130   -0.05199294524913
N         3.05736441475924    1.09962258391862    0.29962320112083
C         3.96750479068920    1.77587736966173   -0.59208067506493
C         4.43986220970869    0.55905930341835    0.19344445984193
S         4.84588905353830   -0.65333136683040   -1.17740588723311
O         3.77520917713280   -1.57716992976520   -1.48587915914708
O         6.18335290735494   -1.19375742253256   -1.03722248312746
C         4.98428679731113    0.57143638826418   -2.50027241462814
C         4.82103265164060   -0.16481050985622   -3.81292980742898
O         6.22803739990763    1.17786606412050   -2.08252394120378
C         3.90648540773590    1.55390949572569   -2.05179188802411
O         3.03135320460389    2.00287710727443   -2.77467255734556
S         1.40216472612451   -0.66569431530212    1.46215049935936
C         0.78273730778272    0.47745698760666    2.67428327653714
O         0.31239439478962   -1.46125463331332    0.92978401711474
O         2.58159339501255   -1.35332570055627    1.96665106362385
H         0.94632382378185    1.68186837940058   -1.36244386241699
H         1.01153789493319    2.32210281881133    0.27355335729358
H        -0.19353597320612    1.05959378505638   -0.23538704084089
H         1.96403821143279   -0.45652274782802   -0.80647089565658
H         4.14615909862156    2.75975057589491   -0.16672753830231
H         4.96511620840079    0.48808726641935    1.13695252362186
H         5.28051622700927   -1.13761518761927   -3.60957658215179
H         5.22476408479370    0.44177579428863   -4.63237712670172
H         3.76922424966298   -0.40883965012063   -3.98929164517492
H         6.75141407454255    0.52864328834344   -1.56242713507309
H         0.33509563007417   -0.17662013356745    3.42350798983432
H         0.06528036292949    1.04059818758984    2.07659255025891
H         1.50241663892040    1.18580359640335    3.09256407107358
