30
 energy: -57.475653466464 gnorm: 0.122394808142 xtb: 6.4.1 (79825abcba525fcdf90b791dcacef51065a7a4e7)
C         1.08148821296036    1.84084650551868   -0.36477571603521
C         1.98335434558297    0.63334143327292   -0.14343749977596
N         3.24047068086829    1.00550927442629    0.52063715239416
C         4.35287226981292    1.57143152869080   -0.20262390244117
C         4.47305662952214    0.17959490726421    0.40496480126102
S         4.59890447828056   -0.93941245273725   -1.09368941379478
O         3.31867185259367   -1.50294253179082   -1.46574736877109
O         5.73042623941334   -1.79838504667397   -0.80672974394918
C         4.96383094524084    0.36205097216374   -2.29460883905899
C         4.59651121189763    0.03890368264957   -3.72724029381378
O         6.35490043345197    0.72289699519574   -2.14000571297275
C         4.29173002801523    1.58573411102554   -1.67904084248791
O         3.82437812293434    2.48063784231793   -2.36512703601158
S         1.20113956001937   -0.53232694225120    1.08129327438089
C         0.93419907148800    0.58939195399282    2.43415712281720
O        -0.02365843127852   -1.15286824273235    0.61360957755603
O         2.31659564149100   -1.31239382908820    1.59671844834952
H         1.58969846096193    2.53664594537717   -1.03476020244806
H         0.80319179543201    2.32294670758938    0.57529514303113
H         0.15665747106191    1.60410752262688   -0.90300440910958
H         2.05659167249855    0.04224965159993   -1.04972853172668
H         4.93534203956476    2.31767836242939    0.33094311574965
H         5.20551028543598   -0.10810786975511    1.14784768514661
H         3.70227472641446   -0.59219585722531   -3.75692379632125
H         5.35224848412259   -0.64020827788964   -4.13968185802947
H         4.40682399346205    0.95142606159772   -4.30019430647637
H         6.86151182732406   -0.09634599745398   -1.94481386244823
H         0.88630339859857   -0.06168936284519    3.30784857082646
H         0.04350124610237    1.18987620532602    2.24658652060636
H         1.86955927665422    1.15410383059133    2.46337806652860
