30
 energy: -57.475251136199 gnorm: 0.129722645798 xtb: 6.4.1 (79825abcba525fcdf90b791dcacef51065a7a4e7)
C         0.42977675730530    1.24374763586564   -0.22945982679377
C         1.72257047937403    0.44378757647427   -0.13370015732698
N         2.83110335154319    1.35338602392132    0.18821765978192
C         3.75136424202532    1.92536443681341   -0.76402832753104
C         4.21384235592326    0.80395262894744    0.15758276735019
S         4.45001594851606   -0.59911472381901   -1.06291044534594
O         3.22499288107111   -1.16271873589413   -1.58889318952939
O         5.52843884436838   -1.47900210023760   -0.65877738790763
C         5.05311279198786    0.54141191955115   -2.32966180611553
C         5.11994450281575   -0.04528030156776   -3.72361539393245
O         6.29472220625430    0.91590138610504   -1.69142203873792
C         3.91920962770971    1.55189064288002   -2.18392099202093
O         3.17069508369040    1.95809692631753   -3.05839636885856
S         1.75289209385593   -0.71372816508145    1.32569907054473
C         1.29338776021361    0.29655449953709    2.71420035024185
O         0.87413559808451   -1.84755571159829    1.11086941306778
O         3.16843873720270   -1.03287614170435    1.43875656588846
H         0.52025765037308    1.89892610914016   -1.09770409298842
H         0.38862927164707    1.83260930666279    0.68986141194278
H        -0.43109983207277    0.58365721968590   -0.38508602981094
H         1.96832649335208   -0.18929880312589   -0.97923090465285
H         3.98726044006109    2.95815533848146   -0.52206745025769
H         4.74163923890278    0.82030096809397    1.10219879436670
H         4.14369281058153   -0.54099294961806   -3.71830173219614
H         5.88486168164724   -0.82850615699749   -3.78605650338866
H         5.19323701361475    0.60774906083642   -4.59833563093607
H         6.60781687005074    0.06152921753065   -1.32002740624026
H         0.20404603865624    0.33443706148865    2.75211008729885
H         1.69803499263422    1.28254707664520    2.48357958307332
H         1.73087178915617   -0.23243303036266    3.56474840778136
