30
 energy: -57.466631351724 gnorm: 0.132641610978 xtb: 6.4.1 (79825abcba525fcdf90b791dcacef51065a7a4e7)
C         0.66619572835099    0.93835593978536   -0.73608606408513
C         1.85398392749171    0.18879917579613   -0.14638663380522
N         2.96876314618087    0.99588242169872    0.36910312764776
C         3.83967777891226    1.72897884646677   -0.51683637407619
C         4.36165077350858    0.49638118167648    0.21053165595282
S         4.81849352966045   -0.68420471889997   -1.17203532069510
O         3.87877433715371   -1.71308857051770   -1.56358951379707
O         6.16884237621965   -0.98611270322941   -0.74083835798270
C         5.06914137695944    0.63903661822278   -2.37843237778687
C         4.84422799776477    0.05190890681773   -3.75555832366463
O         6.29251767123754    1.32322383960404   -2.02569367707926
C         3.88859776600606    1.51918207117049   -1.97880159585254
O         3.15543102587581    2.04477918673409   -2.80111473350091
S         1.33964154238659   -0.62660528272754    1.44771990759337
C         1.34998902169902    0.69594742901949    2.63536394260853
O         0.01323079403928   -1.14998894880495    1.18194983501497
O         2.26528552018264   -1.56665667791197    2.06245263750294
H         0.79461729305389    1.35517841848766   -1.73661625359230
H         0.18195105999366    1.69385657455158   -0.11292587421073
H        -0.13986479320171    0.21709915454176   -0.91244497787438
H         2.20591600518911   -0.63758694977333   -0.75412537957256
H         4.01097225095585    2.76599173792442   -0.24095285399840
H         5.07074926206605    0.47859149744279    1.02784387647309
H         4.07563714917452   -0.72160557161578   -3.65671455842578
H         5.71035562284718   -0.51109093424609   -4.12338170348159
H         4.62420705848722    0.86319410166129   -4.45581667005705
H         6.92561777460098    0.61957789191576   -1.76115505400536
H         0.98265751229930    1.55002943071508    2.06514545863575
H         2.35878081149088    0.78382354555074    3.03999166776754
H         0.55037910815688    0.47590072219961    3.34730180047263
