30
 energy: -57.474426792597 gnorm: 0.117634074073 xtb: 6.4.1 (79825abcba525fcdf90b791dcacef51065a7a4e7)
C         0.82659276682170    2.06290193996709   -0.07950797451059
C         1.83451244521301    0.92087718603199   -0.09679995004173
N         3.18099610376755    1.37607341461602    0.27686254793162
C         4.30431907479798    1.78606961962672   -0.52989668663698
C         4.36843015209093    0.47936007051254    0.25062711299781
S         4.26472518460778   -0.85951531498891   -1.05728634179978
O         2.99771811586366   -1.14351027803103   -1.69683993434942
O         5.21669187306688   -1.93515195010996   -0.86418916209487
C         5.13060957886238    0.28759051492483   -2.15436348805937
C         5.24177701018450   -0.20468466124034   -3.58162933604822
O         6.37662484279620    0.58993841989153   -1.48711690099499
C         4.22668766431810    1.50414962293162   -1.97842850495189
O         3.35579813774436    1.97727513157235   -2.69095109009804
S         1.49677762098739   -0.52547322071620    1.02775057923957
C         1.26103911860463    0.09460994517668    2.67689439467199
O         0.21590263358150   -1.14144384713372    0.73814892272929
O         2.75097484464306   -1.26393804410392    1.03604252178319
H         0.82629623849362    2.52014754709617   -1.07057815124300
H         0.99099033986271    2.74634805180072    0.75683978257035
H        -0.17498314541599    1.62092000814428   -0.02905960252339
H         1.72884442090826    0.46734831465257   -1.07621940547619
H         4.72803727082277    2.74627686720497   -0.24826920749450
H         5.06698155879861    0.35528996775808    1.06779832651449
H         4.78648331363361    0.45467246245776   -4.32780790993510
H         4.72001727604271   -1.16484651041252   -3.67271131057492
H         6.28916362153083   -0.33799074821941   -3.86827442389841
H         6.73038218908123   -0.27157416783826   -1.17316492237202
H         1.19911673986020   -0.87014800948657    3.18181550816761
H         0.31215336905115    0.62938811130946    2.72919000180910
H         2.06110682808744    0.75761275149934    3.01596816216591
