30
 energy: -57.471842776012 gnorm: 0.131011091648 xtb: 6.4.1 (79825abcba525fcdf90b791dcacef51065a7a4e7)
C         0.64708372393407    1.95556279640935    0.12319490975018
C         1.75703230674108    0.95610513009873   -0.17600416861531
N         3.07041867008672    1.48913374192788    0.21225161144038
C         4.13896844781701    1.90849376134398   -0.66133296110493
C         4.30242286817543    0.65464195629764    0.18834660515920
S         4.26665224711021   -0.80977740674400   -0.98134404154688
O         2.99514781314836   -1.10129645119746   -1.60846599926529
O         5.21060064068415   -1.82901935040067   -0.56827196136111
C         5.06118579481533    0.20915656545573   -2.24612696443020
C         5.42710263545087   -0.29186363583962   -3.62701960082881
O         6.30611614830822    0.52742624748158   -1.58428172033318
C         4.10874919584322    1.38363788194037   -2.04240617953132
O         3.29845716857889    1.82135845466558   -2.84353802698843
S         1.56889324093679   -0.49583268253080    0.97598908421003
C         1.41954397184718    0.00738599926904    2.67428730748173
O         0.35601929361676   -1.18503669094671    0.57866769037914
O         2.84376666718889   -1.19642492220712    1.02371737496940
H         0.69873110398948    2.78659225765707   -0.58250780215609
H         0.80213525222405    2.32206419060323    1.14066160678558
H        -0.29422855296459    1.39565761637382    0.16172758326566
H         1.78031790250238    0.48822638488596   -1.15409611480662
H         4.56903564197243    2.86907666154618   -0.39082982840109
H         4.82875526987880    0.61640488814229    1.13314738808768
H         4.71551096381072    0.23146915181424   -4.27400238032159
H         5.38341415884263   -1.38753664064853   -3.63266815552674
H         6.45394739737636    0.02671256912494   -3.82963665146524
H         6.48154570771417   -0.36144208335066   -1.20342531190725
H         0.64122652733892   -0.58463661105925    3.15726640338036
H         1.17158617289463    1.06570974687284    2.76131866902939
H         2.43723064007545   -0.21876772325264    3.00264750533823
