30
 energy: -57.465927782984 gnorm: 0.132617380488 xtb: 6.4.1 (79825abcba525fcdf90b791dcacef51065a7a4e7)
C         0.42816782223143    0.94491852489513   -0.57235770625432
C         1.70190015891497    0.23557778308257   -0.13092449142297
N         2.86181826717441    1.06545756557156    0.22366689869795
C         3.82477876934642    1.74324386240513   -0.60947453655870
C         4.23708720155367    0.49952130141990    0.16768272888998
S         4.63279306419289   -0.71204848873230   -1.20690635308815
O         3.48453489224989   -1.43035237517753   -1.71732925997246
O         5.72634608205858   -1.49282008366131   -0.66371322217429
C         5.13297528881834    0.58772784425436   -2.35998270063253
C         5.03387633968116    0.11804920661697   -3.79572718341273
O         6.39871753583148    1.09140035812357   -1.87687105470197
C         4.07581557217554    1.64697195064269   -2.06256165089960
O         3.63588152075235    2.46432489146783   -2.85526396034372
S         1.45195836417467   -0.65125786031630    1.48822955725570
C         1.34688843344777    0.67584189457704    2.66615894793665
O         0.21812455330897   -1.41328241982124    1.45819017971270
O         2.65214779767422   -1.44358288792619    1.71222978543858
H         0.55204067460224    1.22927426922422   -1.61882369011454
H         0.25228599687085    1.85672899177301    0.00320286877673
H        -0.41835471497763    0.32509894361813   -0.25570228775483
H         1.81549318626139   -0.50074610655265   -0.91898565031691
H         4.05041491216742    2.75281862605779   -0.27676408384281
H         5.00276164534813    0.44380237366239    0.93042402662032
H         6.01771091541980   -0.18054149429597   -4.17221058570624
H         4.65846384742422    0.96285194382722   -4.38548452255856
H         4.34178733519723   -0.72235476292068   -3.90384106388821
H         7.10173374397749    0.42675688355464   -1.70386438776577
H         0.90290407163698    0.10359744517725    3.48160471529707
H         0.60284553093738    1.45191386915542    2.48389778219625
H         2.34417241202221    1.08649310479348    2.84347880061389
