30
 energy: -57.476833323962 gnorm: 0.138699935652 xtb: 6.4.1 (79825abcba525fcdf90b791dcacef51065a7a4e7)
C         0.96006144333652    2.01397260422231    0.02481593119060
C         1.87674435115502    0.80052645605016   -0.06271964201323
N         3.21008233767601    1.29319989192209    0.31054768386893
C         4.27029186366266    1.69847715874123   -0.57968686103711
C         4.45006542943763    0.47029348173344    0.30352510402702
S         4.43710934376583   -0.86203644657253   -1.01507600251217
O         3.10372907432029   -1.13366040385406   -1.50833690401824
O         5.35427700938696   -1.93921594043365   -0.70041894045599
C         5.10269182216052    0.25745928885279   -2.26923512374193
C         5.13635459914839   -0.26537794875169   -3.68954807754097
O         6.42543959983693    0.65629640551428   -1.84443685168855
C         4.21872499346934    1.47984201457420   -2.04026541501199
O         3.48120269551297    2.07546387067837   -2.80921284510150
S         1.38468602800050   -0.55996463770255    1.11097143664372
C         0.98568919872756    0.30807885953534    2.60998882093680
O         0.16464984589697   -1.11393564600869    0.55549191013958
O         2.55088782372237   -1.41458633370745    1.27831795813856
H         1.43614528437771    2.90856695214098   -0.38057136831145
H         0.79655923779272    2.25037240189538    1.07884861132005
H        -0.01599242207771    1.77356368338694   -0.41172705822731
H         1.82272011899211    0.42428043329743   -1.07841492401170
H         4.66099972181977    2.67887392635353   -0.32080698206986
H         4.91906397644154    0.40948430897169    1.27691043717378
H         4.11010025406279   -0.54742675633225   -3.94660278057840
H         5.79883798079709   -1.10925531976945   -3.91632257954477
H         5.43717136002975    0.51005517709829   -4.40029935381981
H         6.84187262790397   -0.20340651208962   -1.61333412473497
H         1.72953944997114    1.09024074747846    2.76634484868763
H         1.09341072254978   -0.30678911769191    3.50410297837468
H        -0.03633230973954    0.67627455544356    2.48934038108474
