30
 energy: -57.472827360895 gnorm: 0.126401960981 xtb: 6.4.1 (79825abcba525fcdf90b791dcacef51065a7a4e7)
C         1.07395655054420    1.70355604572572   -0.35810588878993
C         1.91594901022266    0.44417000279410   -0.19867842021313
N         3.20148714137115    0.80770399678764    0.41375953524748
C         4.30623541693400    1.54215540903453   -0.15274220595149
C         4.53968745829049    0.15695632236466    0.43678397798871
S         4.79371602263586   -0.92275631713271   -1.07439759181396
O         3.61016023157047   -1.67378820718157   -1.43514076249692
O         6.10291286612619   -1.54436317436575   -1.06300434417592
C         4.95835140157724    0.40689741618424   -2.28852360627086
C         4.34066748184205   -0.02328341433434   -3.60198920168564
O         6.35898383907952    0.71454969167919   -2.46953507673561
C         4.45233068090463    1.67998376752286   -1.61678094774905
O         4.31855935190323    2.73035570644879   -2.22407723012869
S         1.07633011542504   -0.52541398942750    1.15245266196958
C         0.86949154383944    0.67207939283948    2.44974927535753
O        -0.22777813508298   -0.86582972298281    0.61640372301440
O         1.99956122492505   -1.55599232112584    1.60407456981989
H         1.07885744157551    2.15136700735158   -1.35346263459844
H         1.18913378353817    2.54131016915122    0.33363463600080
H         0.05348289344962    1.30536655730638   -0.32454963510420
H         1.95209090855326   -0.19271072002476   -1.07571510448004
H         4.47903993450612    2.45484906031611    0.41115319163390
H         5.11485954756475   -0.10859468823053    1.31416414837335
H         3.27188900825173   -0.16350220035855   -3.40995301272691
H         4.63700194157002   -1.04242684527044   -3.87762025719559
H         4.45714178823956    0.73608621612547   -4.38092830961531
H         6.89427672746092   -0.10120906173336   -2.35158074744428
H         0.71575040979763    0.09287400821758    3.36102443091543
H        -0.00680557717936    1.27895758711611    2.21972993673129
H         1.70531725729273    1.35687059606116    2.61439576158843
