30
 energy: -57.474891310334 gnorm: 0.139643428718 xtb: 6.4.1 (79825abcba525fcdf90b791dcacef51065a7a4e7)
C         0.18930560401803    0.55344241119392   -0.22165541420616
C         1.63586483872966    0.09460098741852   -0.08992633789247
N         2.50886296371769    1.26854151139398    0.05001455046989
C         3.20954281709334    1.90089587893454   -1.04085094485032
C         3.99413911901588    1.17521333106014    0.04478755357625
S         4.82496990121240   -0.15987079912992   -0.97562912425910
O         4.07265115897542   -1.39193890421835   -1.08057454969072
O         6.18012085452671   -0.33446129524655   -0.49230178314327
C         4.71470580365648    0.71090748414673   -2.55637984736364
C         4.83977466648472   -0.16052062633772   -3.78794457274887
O         5.73540225560325    1.72109688613364   -2.39242124047803
C         3.30961690770289    1.27805935420651   -2.37719288320165
O         2.36838470912286    1.17288470278289   -3.14726105714972
S         2.05042765932656   -0.85079829314509    1.46086896364600
C         1.75195778390685    0.15125159606633    2.89842343263786
O         1.07887113335022   -1.92725233762743    1.42545324382192
O         3.45623489683707   -1.22772163580965    1.46754219781856
H        -0.05297811252978    0.91432909098783   -1.22283128958092
H         0.00759967784027    1.39433871405363    0.45175314413265
H        -0.56250702100123   -0.22431873115223   -0.04583517602546
H         1.92868922154322   -0.63045777012506   -0.84136516601453
H         3.28156553478974    2.98516567850067   -1.04541710443160
H         4.53158513595651    1.61829241458120    0.87301998707550
H         5.81338312102827   -0.64535978189288   -3.66207082014893
H         4.76459723665898    0.38601523745902   -4.73561900358541
H         4.06281311502503   -0.92879166054389   -3.84312608019320
H         6.39424913232643    1.27014245511280   -1.81929390901311
H         0.68094086125500    0.27478693718340    3.06334582024775
H         2.37849856262123    1.03427147283135    3.02815096670571
H         2.20572869654186   -0.45229479001431    3.68866124449519
