30
 energy: -57.472861596063 gnorm: 0.135048890571 xtb: 6.4.1 (79825abcba525fcdf90b791dcacef51065a7a4e7)
C         0.38470855336164    1.29577391070599   -0.14340051217316
C         1.74199656907055    0.60477625944349   -0.17010365568371
N         2.88107296663808    1.47363746653026    0.15766293211645
C         3.85458462020899    1.97588460821824   -0.78086481353300
C         4.23022694697307    0.84559412704009    0.16895271369823
S         4.47470243076363   -0.63330090898338   -0.95669421300326
O         3.20553336879673   -1.25220895310143   -1.27473754036107
O         5.51274637317182   -1.50556873676491   -0.44470313468137
C         4.94336581446789    0.41980521534688   -2.34971537744283
C         4.88935170557597   -0.21435827472310   -3.72328736026055
O         6.17363400836954    0.89303523910190   -1.75668939360517
C         4.01354427223757    1.62104577603653   -2.20654759945941
O         3.35908027710878    2.12875938804487   -3.10314587058664
S         1.83809112175573   -0.69706866062600    1.15902155246015
C         1.31180045483879    0.08844888219467    2.66425622651614
O         0.98422212632654   -1.78326082238661    0.71740634274132
O         3.20938825256891   -1.00989521068647    1.53331215828938
H         0.14324608836489    1.66721783910749   -1.14090691396325
H         0.38294489722470    2.15941609307189    0.52571965545250
H        -0.46143689245489    0.63736177975154    0.08370900338962
H         1.71087867924757    0.15805850545089   -1.15782401970537
H         4.02471410483563    3.03748512449087   -0.62303723175508
H         4.76763922087676    0.84026542207501    1.10825887056434
H         5.64968961542474   -0.98482406635308   -3.88789403547846
H         4.90609776225009    0.58192220200952   -4.47700938779419
H         3.89741482702728   -0.67299566961237   -3.67163852759795
H         6.59431395787837    0.16512046314139   -1.24768791744789
H         0.23684800755471    0.25915039074081    2.59442891196638
H         1.89674499970877    0.98532249055648    2.87056738212666
H         1.50118834752499   -0.62773817269899    3.46791063540290
