30
 energy: -57.478692480226 gnorm: 0.129958018132 xtb: 6.4.1 (79825abcba525fcdf90b791dcacef51065a7a4e7)
C         0.53792607956578    1.28404963863100   -0.17632705560763
C         1.77715895905921    0.40043433032001   -0.11349843327595
N         2.92763760987503    1.24309129542688    0.24171121159958
C         3.84247998068280    1.87683907317559   -0.67602439732474
C         4.30925237254790    0.69535712747171    0.16483290683360
S         4.67779325407893   -0.65842771832429   -1.07831793795622
O         3.57735978467618   -1.52801029038826   -1.43589472546136
O         5.92756422839178   -1.30630519041050   -0.73357376240319
C         5.02416067686144    0.54252136090641   -2.38481583610260
C         4.97705226479898   -0.11697637848589   -3.74666178121019
O         6.22461048360170    1.23827774765886   -1.97981014096845
C         3.93080725489795    1.57317703596610   -2.11954018280865
O         3.20576635381453    2.01075240289093   -2.99864665111405
S         1.58979517929158   -0.73985663465297    1.34774743979041
C         0.91917965395447    0.39354323765711    2.54166144280345
O         0.53436767812090   -1.70771941305493    1.11700060928683
O         2.90324272127788   -1.18738823532403    1.78704318299132
H         0.61717038758231    1.76268571808792   -1.15403947573747
H         0.65610773830302    2.08865050375135    0.55322984426323
H        -0.33886854558151    0.62750912783111   -0.14121121189585
H         1.88454621070475   -0.14991670695440   -1.04177549802745
H         4.07134077402106    2.92884348819322   -0.52851606059969
H         4.91280171812722    0.74513670483194    1.06170891529496
H         5.94749735109237   -0.48446325650095   -4.09597018303336
H         4.60197626984241    0.49824833417687   -4.57325507511788
H         4.30950658624442   -0.96638065515715   -3.57389090786534
H         6.84891142693628    0.49517333478005   -1.82502575064065
H         0.05496289837533    0.91186032302386    2.12451108476040
H         1.71016577625679    1.02819250230424    2.94249550836645
H         0.61506930636838   -0.15899491647879    3.43433751234529
