30
 energy: -57.465899960130 gnorm: 0.138471105370 xtb: 6.4.1 (79825abcba525fcdf90b791dcacef51065a7a4e7)
C         0.74116604817024    1.38475963664514   -0.40179501813229
C         1.81181818166917    0.36066575507872   -0.04773661090356
N         3.07031833457801    1.03778036932428    0.29510252864995
C         3.96362334554783    1.75116798425745   -0.58461112379233
C         4.47571101055246    0.55586515485990    0.20901022445553
S         4.69153948590635   -0.71545973277548   -1.15155243189676
O         3.58385908441059   -1.57391193758977   -1.51361981103188
O         6.00722095026482   -1.30416633810405   -1.00013221746494
C         4.99073521122498    0.55085560389157   -2.40698591207527
C         4.95349527645602    0.00449652455616   -3.81832775200120
O         6.25541682977724    1.12114841824043   -2.00135947035466
C         3.92962706239649    1.58853692645264   -2.05299299650281
O         3.04988642097867    2.11579308869538   -2.71484048102090
S         1.45923466791135   -0.66448270752201    1.46730916390643
C         0.58028589334894    0.47543967444313    2.51027470192059
O         0.74268533195040   -1.87407706195399    1.11042232991397
O         2.79188636352728   -0.87240218151953    2.01431801030295
H         1.07359830861052    1.81664200392934   -1.34744830691683
H         0.61140863974327    2.19537623219431    0.31908393892045
H        -0.21559858359950    0.85455562720889   -0.46911902858474
H         1.80222866070816   -0.43144439659835   -0.78840265529361
H         4.25582284869806    2.73910949283765   -0.23900998523637
H         5.08098359831805    0.42666451266291    1.09675372741002
H         3.99378024941081    0.23764516950821   -4.29099614246852
H         5.39029683819073   -1.00046960778831   -3.77724987955823
H         5.64231974801699    0.45064825704970   -4.54180830610251
H         6.78607470693272    0.34127985052689   -1.72545862160989
H         1.26592907832019    1.30149069285249    2.70281238879833
H         0.39356012325874   -0.19940067725784    3.34623562775786
H        -0.37027709195976    0.72666639029729    2.03281556355292
