30
 energy: -57.474761972626 gnorm: 0.131685293753 xtb: 6.4.1 (79825abcba525fcdf90b791dcacef51065a7a4e7)
C         0.44943826512424    1.09448194811834   -0.35884640711046
C         1.71620760984982    0.28501422080218   -0.11292150985020
N         2.90055691060770    1.11335705262890    0.15355626634268
C         3.77114981994872    1.85210026517154   -0.72799820306469
C         4.33446595660044    0.71666756414574    0.11715560403198
S         4.73474244379304   -0.63283148397795   -1.12083094023053
O         3.68409691825418   -1.60371803666133   -1.34108562953733
O         6.06162965946172   -1.14206722505898   -0.83698143306745
C         4.94468690561581    0.57095826086578   -2.45349721843774
C         4.99264324679537   -0.09434442120995   -3.81248705463053
O         6.07240711275293    1.35165709251644   -1.99748979555140
C         3.85808035872277    1.60730762010604   -2.18273858563941
O         3.11292497724775    2.06093637745291   -3.03652378068565
S         1.56858447738483   -0.71645805949285    1.45100588148088
C         1.19154136873918    0.44363766995982    2.74397436179991
O         0.53113852138429   -1.71433101753219    1.27244184885008
O         2.87997395618695   -1.24790751365687    1.79192939156448
H         0.23628516977154    1.49594128231905   -1.35116182414993
H         0.41271545381366    1.96187467375457    0.30439111837166
H        -0.39977228437583    0.47539120666574   -0.04801611418791
H         1.78713644503198   -0.46914705324550   -0.88901848174360
H         3.80829069057652    2.91083414841030   -0.48602249859607
H         4.82320650767557    1.05027847101719    1.02323106147375
H         5.70002258357982    0.33197407771993   -4.53130110758429
H         3.95491219957819   -0.13242147645746   -4.16477150603672
H         5.38736714439771   -1.10582819517739   -3.67814326841894
H         6.70329017744157    0.68179657746364   -1.65225437897600
H         1.24596017383508   -0.10816572353551    3.68317041779991
H         0.26578461891321    0.99646012635981    2.58128307425557
H         2.07685758365652    1.07910005071146    2.65998125014069
