30
 energy: -57.469397285273 gnorm: 0.121747978149 xtb: 6.4.1 (79825abcba525fcdf90b791dcacef51065a7a4e7)
C         1.15871916962124    1.72183405508549   -0.66678185632388
C         2.04475125158784    0.57558140478368   -0.19617199426315
N         3.29829166220838    0.99744758226035    0.44453923726615
C         4.43785131976346    1.63372777628684   -0.16975966475490
C         4.56796138055042    0.22299050737018    0.39033784004404
S         4.69233134866480   -0.98176627484203   -1.04042168202453
O         3.50818704532162   -1.76146541750162   -1.33172970782824
O         5.99871330649944   -1.59028407072667   -0.88681980188109
C         4.90801152785217    0.32378489467725   -2.27257590955864
C         4.39942405886149    0.16067947375352   -3.68909144164065
O         6.29784886912673    0.72033225023937   -2.25558590436044
C         4.31816594993715    1.58162658975643   -1.64173481492108
O         3.56654064112900    2.31434411573324   -2.26476704887919
S         1.20996390497449   -0.46034281466311    1.10789828879691
C         1.02583597047214    0.47768805302998    2.60654637716478
O        -0.15042589572649   -0.56640572036530    0.61594309146320
O         1.93960349526202   -1.66813806105932    1.46464250763402
H         1.76131747398922    2.30004898232648   -1.36951687767668
H         0.91384628423459    2.40296273029425    0.15157241785968
H         0.19228046218808    1.35048819275732   -1.02615053694738
H         2.17986806113664   -0.16529602061734   -0.97653134854270
H         4.99472732398190    2.43234379376882    0.31288997957099
H         5.02667777301629   -0.12786546490332    1.30555125830127
H         3.38990680384125   -0.25458635856709   -3.77427261109421
H         5.17692476898716   -0.36302369703679   -4.25800932486501
H         4.35899641423110    1.12881449028433   -4.19706272878267
H         6.77984742026791    0.02174895465998   -1.76003286010763
H         0.64050958573267   -0.18986855999325    3.37818707641895
H         0.33319251881070    1.29055791696370    2.38610519141127
H         1.99078876096215    0.84954359323486    2.96044134762422
