30
 energy: -57.469413149554 gnorm: 0.128150157647 xtb: 6.4.1 (79825abcba525fcdf90b791dcacef51065a7a4e7)
C         0.83429128133556    2.03462650705291   -0.05868488778817
C         1.94337163636637    1.00644012254084   -0.24088025394220
N         3.22088914135936    1.50279896843029    0.28961238617661
C         4.42117137153002    1.84657732022891   -0.43284927955132
C         4.37675556700311    0.57193705498830    0.40029952052333
S         4.18971794940630   -0.82641016028314   -0.83405116796951
O         2.93434277384104   -1.17872228120724   -1.46246041996430
O         5.18346245505336   -1.84277297345263   -0.55120888912484
C         5.11044085316665    0.12584222249011   -2.06477070135135
C         4.75252937511303   -0.45908371948860   -3.41441578859611
O         6.51878371050486    0.09224229705680   -1.74130858457139
C         4.49618313096321    1.50881397003616   -1.86952568836381
O         4.13687557380383    2.27873408053337   -2.74594217036635
S         1.46465828260476   -0.46011310510777    0.80346804419928
C         1.27005017291608    0.27364081097479    2.41079003202362
O         0.19897267721429   -1.00502127537141    0.35064942786131
O         2.57203127315665   -1.37772227541162    1.02736131451879
H         0.90960811903035    2.80074552552654   -0.83243080977178
H         0.84294257635481    2.42692515096312    0.96093741994354
H        -0.11884101020059    1.51796578408729   -0.21883452602782
H         1.98302427231887    0.67006396875358   -1.27112070243529
H         4.89576202888180    2.78196884343004   -0.14885015009972
H         4.74381071191206    0.19652876195419    1.34659511714445
H         3.93269749467780    0.16606140938030   -3.78305638153627
H         4.35115173906919   -1.47759453667123   -3.35139490505521
H         5.63735658917336   -0.48382269835659   -4.05739589508307
H         6.57585677836967   -0.88889560346838   -1.73629570953635
H         1.34116821524755   -0.58870117098241    3.07475249571556
H         0.32725734610481    0.76799380679224    2.64714460571148
H         2.00640636365723    1.06314583677302    2.58141668670241
