30
 energy: -57.473987091993 gnorm: 0.140012220161 xtb: 6.4.1 (79825abcba525fcdf90b791dcacef51065a7a4e7)
C         0.66068031268160    1.88776389475035   -0.09169461598390
C         1.74579495115885    0.82125536306020   -0.16590644272968
N         3.00528456672686    1.41451344825954    0.30481244938160
C         4.07724196943839    1.87213531854559   -0.54507072152632
C         4.26059495609265    0.61520122607013    0.29595000147367
S         4.31975762069254   -0.73578719660730   -1.00224477638875
O         3.16441739974440   -1.15720581940246   -1.76551679145514
O         5.17750583720506   -1.87024412870884   -0.72332411436458
C         5.16135340429582    0.36127946541736   -2.16729718392044
C         5.15095736058157   -0.35709245707286   -3.49981905874669
O         6.41123532694490    0.65954591383367   -1.50546744425323
C         4.15511695555759    1.49128479155708   -1.97077696577119
O         3.51476367755607    2.00328080674961   -2.87509577629080
S         1.48216072185421   -0.56710105806427    1.04800114947996
C         1.61770283937042    0.15441521067932    2.66688771338880
O         0.21083016222910   -1.18064432814225    0.71451512309311
O         2.66370162791043   -1.38369393179929    0.81231726485934
H         0.74437803580745    2.58663887654931   -0.92587815655968
H         0.81686188427970    2.50339749710145    0.79724031201734
H        -0.29223058557527    1.34694511255314   -0.06882016835705
H         1.77524883913332    0.36053632881367   -1.14722549085553
H         4.56905572069698    2.80143098674131   -0.27052035315151
H         4.85249909562452    0.47379664119885    1.19081897018749
H         4.15652412107763   -0.17685952257716   -3.92106156938866
H         5.25457450861832   -1.40473440678371   -3.19298073808993
H         5.94894667694137    0.00537591578585   -4.15463534064242
H         6.94484217351111   -0.14120248607104   -1.30551800713105
H         1.08651375086350   -0.47847922220492    3.37880091885115
H         1.23304958353246    1.17415915862244    2.63123891910137
H         2.64524540952904    0.11234651307232    3.03707492527365
