30
 energy: -57.470351722821 gnorm: 0.134156955623 xtb: 6.4.1 (79825abcba525fcdf90b791dcacef51065a7a4e7)
C         1.00966955275862    2.12857721749921   -0.15925177973371
C         2.00441855820493    0.97588108191189   -0.11247987649262
N         3.30681403549254    1.40764456748718    0.41401048251570
C         4.45695279621443    1.72442384999532   -0.39694152920851
C         4.45468288570906    0.46132595954043    0.45476006420888
S         4.40133180551137   -0.82133539359121   -0.91122430505470
O         3.02050580941002   -1.14890981390993   -1.19583527204512
O         5.36068474591572   -1.87369082375269   -0.64157408744654
C         5.03580886549588    0.16810035766607   -2.28513900028537
C         4.80391109860308   -0.36851471395131   -3.68158038585120
O         6.44470660791707    0.06675823111742   -1.97867003004286
C         4.42230327996063    1.49783196411762   -1.85680648899186
O         3.91733260513307    2.26405463816842   -2.66172395428454
S         1.42082333366797   -0.45208536143938    0.93199923458365
C         0.55091241614934    0.21096272653119    2.33320347742639
O         0.41377788226659   -1.32048683550637    0.35263060599447
O         2.63105295258070   -1.02371330078678    1.50383443604370
H         1.31523555884958    2.97203554990172   -0.78094398064611
H         0.97042250677826    2.60744339419460    0.82194625418213
H        -0.03742638603188    1.89949353913658   -0.38763335645567
H         2.14980118631938    0.62866604941406   -1.12954536827594
H         4.99847398450901    2.64384680766858   -0.19135580086328
H         4.93862858722213    0.09741434042483    1.35170004618713
H         5.68417406389769   -0.16478365689757   -4.30001178758256
H         3.91996603212522    0.15743758308689   -4.06165304091608
H         4.59951603102370   -1.44223070663899   -3.72965590346460
H         6.64120441951916   -0.87648577989251   -1.78477988294961
H        -0.27410555017054    0.87832029861255    2.08117798522417
H         1.17124333648680    0.81613635214279    2.99506533213935
H         0.13055816221869   -0.69492630392494    2.77741001280496
