30
 energy: -57.466854717386 gnorm: 0.128895632739 xtb: 6.4.1 (79825abcba525fcdf90b791dcacef51065a7a4e7)
C         0.39162845172000    1.49735997270875   -0.24025338812063
C         1.62660888281498    0.61232185674746   -0.13092590638159
N         2.88046596494241    1.33578364382776    0.12263075205515
C         3.80753710536666    1.85202658271408   -0.85453052995868
C         4.26335179615116    0.78597723279245    0.13369475619973
S         4.56050151400319   -0.64402389971423   -1.04137053885321
O         3.37814722778100   -1.40342379307393   -1.38826964439271
O         5.75060855346307   -1.35414669886450   -0.61723363920417
C         5.16889471760122    0.48668549957284   -2.31437478109795
C         5.38593274583994   -0.17034027795001   -3.66084886837218
O         6.25548298267752    1.11488412753553   -1.59752143046470
C         3.93364247578452    1.37996231977239   -2.24916406640418
O         3.03955805118967    1.50862569843478   -3.07016560567026
S         1.60751963988829   -0.62428942979374    1.26228489165433
C         1.35346919225920    0.22822530719870    2.80125470669894
O         0.42753524259451   -1.42831602604889    1.00712274568853
O         2.85075357588621   -1.37174497806835    1.38098329447282
H         0.29957367974674    1.91430028656209   -1.24473356278166
H         0.55608491536039    2.32429119732547    0.45454265633292
H        -0.55488164760667    0.94777185571764   -0.18440621901089
H         1.57439087006784   -0.10602713269857   -0.94170617705898
H         4.11397767978952    2.89435613831057   -0.87671989696555
H         4.92745036857542    0.94025037208689    0.97411675639066
H         4.41087660580384   -0.42353302991597   -4.08978427751967
H         5.84898561289717   -1.16285436498513   -3.60664783099221
H         5.86143400109555    0.54897368757128   -4.33422885645096
H         6.93438597606562    0.49238724076566   -1.25473520637627
H         0.63859319331178    1.03314590177589    2.62634682921548
H         2.24686080601728    0.74560435538598    3.15236299219572
H         0.83919944223281   -0.44360827219931    3.49322171923155
