30
 energy: -57.473535278087 gnorm: 0.133260006499 xtb: 6.4.1 (79825abcba525fcdf90b791dcacef51065a7a4e7)
C         0.38879292045087    0.75518072956196   -0.43154304449587
C         1.76475041747689    0.16233370357480   -0.15641589163966
N         2.69919747929421    1.25480135633586    0.14881990691723
C         3.56158296426068    1.96367903500811   -0.76474189458079
C         4.15575314358356    0.95587028321960    0.21101441024747
S         4.71477762680129   -0.37873683135369   -0.98074699973118
O         3.86013395906016   -1.53351904687870   -1.15696013122565
O         6.10551554284023   -0.66300624939344   -0.68824024140481
C         4.75980293122230    0.65674102374619   -2.46228139722136
C         4.74739424314927   -0.24244155004147   -3.68010633236972
O         5.93303852323664    1.47764750973660   -2.26526086858379
C         3.54682560369251    1.53819146327650   -2.17983648922115
O         2.71171872265931    1.94703238497367   -2.97067799850736
S         1.86444308916076   -0.83112030397049    1.41639009910879
C         1.46211972434170    0.31155376479245    2.71722943689763
O         0.83346115324218   -1.84883972743413    1.34391189480055
O         3.21213148169718   -1.34306608542587    1.61653315368221
H         0.35765611167524    0.82163132150137   -1.52053732868378
H         0.42970928616788    1.76850690562652   -0.02521972729750
H        -0.48369826460223    0.18511752812800   -0.09267070990421
H         2.07762842463922   -0.51017186069724   -0.94759236428259
H         3.68121053151961    3.04271371289191   -0.81188728187901
H         4.86686823224813    1.20343346638707    0.98829442467494
H         5.33824266800560    0.04183829049965   -4.55698131866672
H         3.75397385343817   -0.35746928624055   -4.12991125874328
H         5.17071443214635   -1.20816754246327   -3.38833937418203
H         6.58255317833614    0.80581253971999   -1.96082281310490
H         0.91185905012902   -0.27025138796410    3.45767091160762
H         0.78501970906789    1.05792756605338    2.30061402548929
H         2.38444247450798    0.77263984466139    3.07968281581268
