30
 energy: -57.474536765745 gnorm: 0.140154562370 xtb: 6.4.1 (79825abcba525fcdf90b791dcacef51065a7a4e7)
C         0.19622513584647    0.46513722003572   -0.14312600481557
C         1.68509685952654    0.15101967988977   -0.07232500467986
N         2.48181189467768    1.37611605159501    0.08333352967155
C         3.14540110369347    2.01033858681889   -1.02942114578888
C         3.95950109682164    1.22531622322786   -0.00873580487429
S         4.66574379918947   -0.22948578601916   -0.95676110539598
O         3.75315512175407   -1.32013383702631   -1.22631181346885
O         5.97339895745015   -0.65735096061600   -0.50124969098058
C         4.69603720054539    0.74961586057694   -2.47650717311389
C         4.89782632345640   -0.19692551935652   -3.64060399480424
O         5.73265682199999    1.73658764699236   -2.27527906236034
C         3.29841945551114    1.34651443704175   -2.34078410623371
O         2.57412026773208    1.25752494656135   -3.31928107425312
S         2.12059863232592   -0.85491787064921    1.43400698168999
C         1.71725402119548    0.19923126375233    2.80726363128896
O         1.45477396703598   -2.14186063307796    1.50023013932936
O         3.57001023288176   -0.98644820369940    1.45176961131257
H        -0.01185496230678    1.01999714567713   -1.05971035163182
H        -0.05291860121651    1.07550903930065    0.72806648996391
H        -0.34979304078690   -0.48343879391755   -0.08731317819319
H         2.06000493898770   -0.40764598615845   -0.92288554325077
H         3.11025008394237    3.09543079158720   -0.98264037404709
H         4.63902683214692    1.50739807114258    0.78487042021597
H         5.38754802457726   -1.13698620557300   -3.36622252126453
H         5.56418183750908    0.29040213684440   -4.36235326402411
H         3.94695148994354   -0.44539860562561   -4.12128352388432
H         6.47418284619229    1.10246302433146   -2.15721483300143
H         0.67891256066224    0.52816960187260    2.75083487898795
H         2.37848590126675    1.06530524082599    2.76489677961355
H         1.89958903066360   -0.24342456775527    3.78984280867064
