30
 energy: -57.472522145067 gnorm: 0.135114201007 xtb: 6.4.1 (79825abcba525fcdf90b791dcacef51065a7a4e7)
C         0.69877477667747    1.00509607848831   -0.57231269363305
C         1.92320962251400    0.24235682826698   -0.08301751147987
N         3.03567606606326    1.10197347077437    0.34514502829531
C         3.88071193295329    1.83895840904018   -0.56236773955118
C         4.45372501757904    0.66688937501374    0.22422469065617
S         4.76546542240650   -0.62883516286611   -1.09406794145169
O         3.71577649861840   -1.60491060026393   -1.29511209686931
O         6.06202911597168   -1.25358813573858   -0.92339990402479
C         4.92209527451329    0.55869946028128   -2.44847351044131
C         4.84653883300995    0.10604670069904   -3.89110220356497
O         6.14746006733354    1.25307612319085   -2.12365283010724
C         3.84343166834349    1.54476300958805   -2.01005872126782
O         3.04693721192232    1.95693568968393   -2.83812575914254
S         1.49607311154127   -0.69717363279768    1.46793223623322
C         1.02761233468080    0.59146211697182    2.59917646422381
O         0.27675811794147   -1.45353092497080    1.25550752437684
O         2.69987822172975   -1.44125966308968    1.80793071198982
H         0.97867947006868    1.51630762902004   -1.49513978546756
H         0.60110885976298    1.83868476855486    0.12711134536902
H        -0.21047677163193    0.39787015021138   -0.64705000948157
H         2.15073972053117   -0.60979665693756   -0.71403346126416
H         3.95510390143390    2.85148210555929   -0.17492647440800
H         5.03310062721819    0.90597108910191    1.10643788473486
H         5.69706081573822    0.42244534250898   -4.50374474857369
H         3.89699803745623    0.44411203693751   -4.32298648139086
H         4.85895394724735   -0.98644312678417   -3.83394911879703
H         6.73359974663204    0.58383365279976   -1.70595816160581
H         0.45379325487973    0.13278544193966    3.40533091250167
H         0.33576302105833    1.18525696368957    2.00096338318493
H         1.93817676165552    1.09461210007999    2.93438475689782
