30
 energy: -57.471174484714 gnorm: 0.134842412314 xtb: 6.4.1 (79825abcba525fcdf90b791dcacef51065a7a4e7)
C         0.58699639281340    1.46744228993747   -0.16212505115521
C         1.74958271951210    0.48429086914222   -0.11492400673142
N         2.96955578108586    1.22277728908327    0.24025068416141
C         3.89417228376384    1.86586972912460   -0.66104187332948
C         4.34946308992116    0.67037049074836    0.16618803055176
S         4.67792254904719   -0.67836358557678   -1.09357797505251
O         3.42873862969117   -1.25624744641106   -1.54143802547079
O         5.85447973022204   -1.45369738067658   -0.75432589507727
C         5.05419377487154    0.48135787046067   -2.42873787071037
C         5.09331704301150   -0.16701764629582   -3.79616589440871
O         6.35578494888346    0.93250276310656   -1.99111360251053
C         4.00151637580174    1.53493957914645   -2.09725648888516
O         3.25840029540654    1.95972268552751   -2.96749930061519
S         1.55210854094517   -0.63853295603009    1.35846623633860
C         0.78911272681992    0.30263938396169    2.65915186796880
O         0.55198989849534   -1.65011421039694    1.07492482402678
O         2.88709538849781   -1.13604572583144    1.65629317974635
H         0.33756396430815    1.76307535012515   -1.18275146942587
H         0.83765861292012    2.33170648636913    0.45740587808254
H        -0.30019774466292    0.89077202507602    0.12315611463184
H         1.90793319462735   -0.09764406301852   -1.01625274210176
H         4.26072869427320    2.83840719013125   -0.34377793309207
H         4.95855351514449    0.79521216559364    1.05194176810543
H         6.13346979741973   -0.45324923326334   -3.98319626005269
H         4.67962690451025    0.46591429213159   -4.59033058418891
H         4.33007401635682   -0.94688552919437   -3.71729384040551
H         6.71589460944150    0.22047674012652   -1.41730699831405
H         1.28416624402564    1.27135905950476    2.73688106696332
H         0.70803186380603   -0.30080723714603    3.56379807080189
H        -0.26389773812090    0.48802945163247    2.43232249548909
