30
 energy: -57.473310258520 gnorm: 0.128661646210 xtb: 6.4.1 (79825abcba525fcdf90b791dcacef51065a7a4e7)
C         0.59317656233554    1.14530232772245   -0.49611753329966
C         1.72761676930297    0.19954877755241   -0.12326740299742
N         2.91574795835023    0.97996780092880    0.24974225402387
C         3.78781769714515    1.68267666996729   -0.65938155025713
C         4.32745375684823    0.51749736132603    0.16035449125488
S         4.88485411721782   -0.69959827205335   -1.15188133681301
O         3.86359764780392   -1.61655466795948   -1.61146269216781
O         6.18918309606127   -1.24151872107525   -0.82696689407710
C         5.10225967681354    0.59138694052974   -2.39898912785064
C         5.35585904412371    0.17775573053931   -3.83299660013250
O         6.14588904213378    1.35343029158344   -1.75144454988949
C         3.80239349967875    1.33003196259668   -2.09436566009552
O         2.90907166185353    1.55265606914836   -2.89586381972586
S         1.25784645413030   -0.58709048801961    1.49880617404334
C         1.25135522779966    0.68020927938194    2.74526526450822
O        -0.08414217721528   -1.09094438333478    1.27715908339504
O         2.28650610481529   -1.55298087838901    1.85563219042278
H         0.72897998105359    1.29102869137735   -1.56925079226874
H         0.78927756868719    2.14711282557403   -0.10685817412419
H        -0.36000540235179    0.71727207824159   -0.16553981620610
H         1.91341293677421   -0.55542056996104   -0.87932141148543
H         4.10740511397225    2.69954183164521   -0.44796165611970
H         5.07498543630308    0.52115662794327    0.94286290268778
H         4.84748973982181   -0.76292211307417   -4.06860745693281
H         6.40554571507569    0.18894646591132   -4.14997070492608
H         4.76157889119757    0.87822827090513   -4.42723893533480
H         6.98460105327064    0.92739059823386   -2.03599047908347
H         0.47147560739359    1.42484339407966    2.58141949682012
H         2.21110140062895    1.16793608492255    2.57172411726518
H         1.35772898091646    0.14477148463751    3.69217765379152
