30
 energy: -57.468933120145 gnorm: 0.135907047857 xtb: 6.4.1 (79825abcba525fcdf90b791dcacef51065a7a4e7)
C         0.53190162486028    1.12401295651893   -0.64176781205373
C         1.80689242513752    0.41023085262279   -0.21126206777210
N         2.90882066226175    1.30852302424977    0.16112330059090
C         3.96373308635131    1.91500689127436   -0.61356949560640
C         4.28012245814814    0.75209161901777    0.31827990406493
S         4.63715796400529   -0.63192471365919   -0.89456966641560
O         3.69963634867435   -1.60858624588564   -1.40659927603104
O         5.93662027051713   -1.23719774692898   -0.68111350014747
C         4.92656951880904    0.49103642123275   -2.28179173907109
C         4.78609302204201   -0.15566181956704   -3.64334547853859
O         6.24493409269111    0.97174173269624   -1.93534758107253
C         3.94238755939021    1.63659355475874   -2.06470019941830
O         3.15871998254273    2.11844027432049   -2.86699292733744
S         1.54370214954316   -0.65464458479355    1.29451991721850
C         1.14734911293738    0.52292015517276    2.56573848698774
O         0.52212435105461   -1.65290296740806    1.04195573017503
O         2.85738837723557   -1.22658640651492    1.55049017940511
H         0.76699599780519    1.73013255970674   -1.51849091010169
H         0.33228007562298    1.86559126454653    0.13528789514811
H        -0.23091009904116    0.34929911552646   -0.77955065993939
H         2.09702086431607   -0.32869887933023   -0.95012942334182
H         4.10582932695794    2.95663236512524   -0.33848013905897
H         4.97942751241114    0.79811759413105    1.14289514009787
H         3.75909486187511   -0.51224035166061   -3.77354978142470
H         5.42462147468332   -1.04524718045437   -3.70130429057112
H         5.13766955818145    0.48755820945531   -4.45551329773436
H         6.76411963928771    0.23121911929006   -1.55065722368707
H         0.06627458844030    0.64382701433712    2.64445968437048
H         1.75226080196835    1.41686156012753    2.41063434103108
H         1.31030905159845    0.08562952251507    3.55410736631178
