30
 energy: -57.478640125980 gnorm: 0.126928770524 xtb: 6.4.1 (79825abcba525fcdf90b791dcacef51065a7a4e7)
C         1.25567942465286    1.82245231038107   -0.26403365316795
C         2.00658498881121    0.51215388068723   -0.06483415101966
N         3.28888520806496    0.88758002730141    0.54721742871958
C         4.28341008843701    1.48282191088215   -0.31151350044880
C         4.53301627236782    0.10957186816800    0.29897656685316
S         4.68696443580459   -0.96170296320694   -1.23159522677468
O         3.41382620373834   -1.47821659106956   -1.68692098387748
O         5.86923935264785   -1.79701265189977   -1.16084922075661
C         5.13811257144890    0.39397972777461   -2.33964560439800
C         4.95360130951671   -0.17710456886660   -3.72946543868285
O         6.49625454691929    0.76366535642033   -2.01105891535018
C         4.24421430663093    1.50094686682829   -1.78863413421054
O         3.52409711519532    2.22646626100829   -2.45574546438878
S         1.06515291235874   -0.39712815460222    1.26088074790729
C         0.80977464435619    0.81524975611670    2.53550729815707
O        -0.21341545114118   -0.65646685084725    0.62689648335508
O         1.76417020319698   -1.52753301631757    1.85415084319589
H         1.55623659286444    2.38002794348130   -1.15289164874865
H         1.37583104984181    2.52825805000912    0.56119635839929
H         0.19326966623066    1.61299974191038   -0.43274199895210
H         2.08975751970279   -0.07762107200866   -0.97112573180658
H         4.81238168793867    2.27065303542976    0.21797718612105
H         5.17215789136354   -0.01068405876775    1.16394644668725
H         5.45875832271645    0.42888722257169   -4.48868673120382
H         3.88251262913706   -0.14960501399456   -3.96281653837927
H         5.30785987005559   -1.21168832045940   -3.76251034168232
H         7.07049204621402   -0.01989618959399   -1.86207354121132
H        -0.16117610348586    1.28994956517753    2.38904105889969
H         1.66861324135198    1.47073803451836    2.68328437332045
H         0.68212461823928    0.26509355912061    3.47128810051538
