30
 energy: -57.477508077342 gnorm: 0.144157443598 xtb: 6.4.1 (79825abcba525fcdf90b791dcacef51065a7a4e7)
C         0.25577813700584    1.30906931376724   -0.13838853875107
C         1.56242669277539    0.53730892168886   -0.27058919716151
N         2.75139772034925    1.32134099682547    0.09202270640966
C         3.78441437385122    1.89321670511219   -0.73661848662683
C         4.11984862237968    0.74869918698782    0.21121092079783
S         4.50663751825907   -0.62427054073946   -1.00506547093483
O         3.33073680723510   -1.35604638625188   -1.42548248160435
O         5.60014725606935   -1.39441880012746   -0.44682773644403
C         5.10440661108986    0.48587410486283   -2.30099633898156
C         5.22152629574540   -0.07429272817610   -3.70252298810411
O         6.32005757969902    0.95321796142447   -1.67412414675245
C         3.97597394213661    1.50147668392055   -2.14856567062465
O         3.13814653810336    1.63380860986895   -3.02635732948247
S         1.66026549598039   -0.63870565298532    1.17094660739640
C         1.66436922711457    0.41495575760218    2.60256523354274
O         0.52965032322449   -1.54732954486291    1.17739803757528
O         3.01193719013055   -1.17842738943683    1.18063198901903
H         0.11072888321762    1.87418108742688   -1.06083264698556
H         0.11837247012222    1.97263946479523    0.71858116207830
H        -0.52149108332344    0.53866237849623   -0.19646687440548
H         1.72235015489583    0.04804219382117   -1.22513576622299
H         4.01671520231072    2.89623256776492   -0.38899120533520
H         4.69210445899916    0.71722145362929    1.12918086997620
H         4.26736778659865   -0.48760715034854   -4.04542145477083
H         5.90318535162713   -0.92061635729641   -3.55583567056607
H         5.71013449891088    0.57251550302488   -4.43727176717844
H         6.78524688201103    0.14731563057304   -1.35784201045990
H         1.80319987546546   -0.23754454721173    3.46541343930326
H         0.76658139263266    1.00318044449611    2.79511498026368
H         2.59664255134902    0.97627261474324    2.50037954324043
