30
 energy: -57.475294146612 gnorm: 0.136889900626 xtb: 6.4.1 (79825abcba525fcdf90b791dcacef51065a7a4e7)
C         0.33412033014126    1.39851672526256   -0.04993341897968
C         1.68765202660856    0.72139549700696   -0.22279295686312
N         2.86870051568369    1.48804856429103    0.19817386374066
C         3.89573766621890    1.93631835834716   -0.71015467398230
C         4.21552474626706    0.86841476429334    0.32817842839347
S         4.55425144407736   -0.55226153668210   -0.84694824855702
O         3.41497852454929   -1.28962789855343   -1.35027409723845
O         5.71595339098851   -1.31400787356100   -0.43377471236847
C         4.97573242496592    0.46070797599057   -2.28410947409992
C         5.10437921958583   -0.27662814963938   -3.59999939508821
O         6.18814734551449    1.05147958718278   -1.76427751677468
C         3.84092516877267    1.46564490827317   -2.10987322196702
O         3.00135925057211    1.58378355783985   -2.98802872678048
S         1.72229306825285   -0.67457713400566    1.01036097355351
C         1.40900211509748    0.04834131377405    2.60378144368976
O         0.60320015458038   -1.53561513406378    0.67843586321844
O         3.06164008834907   -1.22819927572034    1.14475521027850
H         0.05241973480915    1.87442279891786   -0.99091796278516
H         0.42826547309268    2.16798332514321    0.71991108786823
H        -0.41820921176449    0.64900892754639    0.22077988922468
H         1.80427983571670    0.11190155080523   -1.11219259541310
H         4.05823666348160    3.01076767412259   -0.70879834216866
H         4.79265767064708    0.94902142391020    1.24007556652785
H         5.95941965348486    0.08668199791796   -4.17942861802583
H         4.14556478845003   -0.17981872173905   -4.12320369990989
H         5.23764637470415   -1.33030535867844   -3.33739924707265
H         6.84389428844904    0.35884913384906   -2.00128605207849
H         1.97878255584314    0.96458012259969    2.76313739012397
H         1.90255706549874   -0.63238808030012    3.29812839305855
H         0.35517152995741    0.14964771010174    2.87549856248022
