30
 energy: -57.474304242211 gnorm: 0.135354215308 xtb: 6.4.1 (79825abcba525fcdf90b791dcacef51065a7a4e7)
C         0.50173082946959    1.38111855630267   -0.14673626799314
C         1.76478086006796    0.52957518015830   -0.14638730434358
N         2.91955567854257    1.37918933396850    0.17687175505402
C         3.85968571957661    1.96851910433057   -0.74489707894780
C         4.31478912140940    0.86182804086322    0.19793550290550
S         4.74305405404172   -0.57157165098791   -0.93163701865997
O         3.59638586769612   -1.37548189063342   -1.29751848121669
O         5.97947343087466   -1.17722955013436   -0.47890431545878
C         4.95116445133079    0.47073958504646   -2.39432741222846
C         4.83689686617381   -0.25957895350253   -3.71544761681247
O         6.17967698463065    1.18926443764173   -2.14200759201315
C         3.86170979180305    1.51064273946950   -2.14992201684878
O         3.10250497912121    1.85360480210871   -3.04209342791402
S         1.56655688579483   -0.72398303992639    1.21739686547200
C         1.38924997813112    0.01456297213134    2.82452571679863
O         0.33956686828834   -1.43558901338726    0.91401245422269
O         2.80124056934174   -1.47748667703679    1.37925543476630
H         0.45053499058445    1.95769902262869   -1.07206198407487
H         0.26808813038850    1.98000551155051    0.73663693986445
H        -0.24295179236967    0.59641217525695   -0.32203904807223
H         1.83554597313750   -0.03294644666989   -1.07087546069698
H         4.01093848468944    3.04441570300549   -0.76534675853172
H         5.00429104303924    1.02244993068991    1.01642432513184
H         3.87856068432076   -0.78856473505984   -3.73978764140753
H         5.60904122097288   -1.03576720780576   -3.65408954933924
H         5.00291662464497    0.47574743896624   -4.50834557342164
H         6.77702011952115    0.49926997686391   -1.77731201049976
H         0.51716936487523    0.66931256185228    2.84230216615005
H         2.20644030589419    0.70942920769284    3.02065721956757
H         1.27482101342469   -0.78580783050640    3.56002872238664
