30
 energy: -57.471443732286 gnorm: 0.129388134958 xtb: 6.4.1 (79825abcba525fcdf90b791dcacef51065a7a4e7)
C         0.44432713073256    1.24453443251517   -0.38621675877168
C         1.75138144725408    0.48073727452839   -0.21696994267021
N         2.88805113142452    1.31351306045041    0.20053729772216
C         3.94483652878430    1.85226772918654   -0.62029123881692
C         4.21870281509043    0.65137593482613    0.27618699184936
S         4.59268329035670   -0.67874128969153   -0.99066208055131
O         3.50049902903400   -1.43056433468433   -1.57107958405889
O         5.80975740010012   -1.40332414364958   -0.68369049731708
C         4.94560860200842    0.43256474094479   -2.37255515458597
C         4.93437627635918   -0.12754011660796   -3.77894671980843
O         6.21087134782025    0.88465836445311   -1.83972512439072
C         4.06841578965643    1.64582686809166   -2.07832433681378
O         3.37970821144378    2.27133105328056   -2.86852119952439
S         1.60671875074852   -0.63775830810106    1.26581410040090
C         1.34822095388784    0.36512678652875    2.71051181130781
O         0.40726691420307   -1.44557734294709    1.15323805612086
O         2.86331651398366   -1.34340052679814    1.46938435641131
H         0.50244206150829    1.90511570531455   -1.25313588539248
H         0.26049935325270    1.94791678059134    0.42929740379218
H        -0.40244026673643    0.55115011499761   -0.32920321934720
H         1.86650537689322   -0.09054906215959   -1.13157094468957
H         4.18112805390687    2.88750005982509   -0.38940255394073
H         4.79830543835004    0.71496501257977    1.18786326174031
H         3.88997034271570   -0.35880544968534   -4.01252587555550
H         5.56895874358626   -1.01772634540073   -3.86446568100517
H         5.22352612176269    0.72418889885443   -4.40176666468637
H         6.71725205045279    0.06902278591911   -1.62941290222213
H         0.43133852936773    0.89464988039731    2.44884497058684
H         2.24578098794619    0.87697603871974    3.05908463180996
H         1.08460932792808   -0.42168438880789    3.42191125289679
