30
 energy: -57.471019990034 gnorm: 0.128896898682 xtb: 6.4.1 (79825abcba525fcdf90b791dcacef51065a7a4e7)
C         0.97772254606666    1.86063180551066   -0.26023518301317
C         1.96055911354350    0.69701022714770   -0.23929055434113
N         3.21933179629468    1.10875342000013    0.39773743007112
C         4.28078662764928    1.72795238181107   -0.35772121067494
C         4.52361292895440    0.39457040104934    0.33794030626055
S         4.46612133266501   -0.87124752576939   -1.04350077923270
O         3.13703677771184   -1.40766103534973   -1.24545034238088
O         5.52953609477417   -1.83130350697442   -0.82449664121028
C         4.96429462239815    0.35831770652824   -2.27198706431556
C         4.81304898610612   -0.21504014494880   -3.66488561787132
O         6.29097041874978    0.68132024324235   -1.79786999680513
C         4.16716128593379    1.57962140348698   -1.82361252782824
O         3.69598428092840    2.31751457317972   -2.67419502870149
S         1.37598206458708   -0.53986024078245    1.02523675000684
C         1.17995857170098    0.39234441353450    2.52601000816828
O         0.03112905783162   -0.99778362857514    0.73265132987611
O         2.50467026008041   -1.41988094533851    1.28988036933110
H         1.46818422108075    2.74376140301568   -0.67354280969392
H         0.47169747531892    2.11513794345087    0.67398533840699
H         0.24875875605431    1.68798471027330   -1.06014277370240
H         1.96212932597260    0.21374103460000   -1.21014842705467
H         4.62055988486843    2.71459503539472   -0.05450566962448
H         5.01352841236353    0.20828847628816    1.28473398192426
H         3.77222924353690   -0.29061771551284   -3.99625991522870
H         5.33273229339104   -1.18031281781492   -3.68974220440827
H         5.28384319182024    0.52629271366363   -4.31736783326544
H         6.74312745245497   -0.15613575637895   -1.55264457119931
H         1.97795155203412    1.13553874783582    2.54618443900522
H         1.29156229632918   -0.37515520318091    3.29255787358052
H         0.17685834415345    0.82642611044460    2.52989515392918
