30
 energy: -57.471093388889 gnorm: 0.137002246956 xtb: 6.4.1 (79825abcba525fcdf90b791dcacef51065a7a4e7)
C         0.58027209795027    1.94225822103769    0.19917490553190
C         1.62614831136190    0.88917984837517   -0.14373975492631
N         2.95160883576519    1.44250065716586    0.16744552545897
C         4.07700889362861    1.77821547298135   -0.67015922346371
C         4.13359448693720    0.53947780517972    0.21479508086885
S         4.24345120522268   -0.77703272881432   -1.11513397982505
O         3.03782938231627   -0.78713466932271   -1.91598527982248
O         4.81186702244081   -2.06194550870622   -0.75957265026495
C         5.34349928698531    0.27109849147705   -2.09518551026967
C         5.60587353725345   -0.28572612337637   -3.47825707331573
O         6.54414196692383    0.62662499444458   -1.37321296061740
C         4.33524958232487    1.41618703703031   -2.07941340148969
O         3.73561706311221    1.81100994987318   -3.06660152681836
S         1.45202798121854   -0.51762186236444    1.06506098400049
C         1.74509243015823    0.09764826968486    2.70679999933808
O         0.05541042740609   -0.90532781956806    1.00962483471389
O         2.45990839104027   -1.51931378409994    0.75010050597562
H         0.81305529555979    2.93296606854353   -0.19529141590530
H         0.44515686443681    2.10416123576777    1.27115159160086
H        -0.38545737749615    1.66664009515539   -0.23951474420779
H         1.50186198910433    0.31006635273390   -1.05219837065683
H         4.55146626680024    2.66320385544958   -0.25478591628455
H         4.82514265657663    0.27089945096296    1.00268037148811
H         6.34243728060735   -1.09563045243191   -3.45940340973472
H         5.87285496266989    0.57878141411990   -4.09776297240888
H         4.66352968061578   -0.65519447502535   -3.89351100272231
H         6.85144895858239   -0.26518471669776   -1.09725663118976
H         2.23874415582644   -0.68052438900280    3.29014630272497
H         0.77230607492347    0.44001607714280    3.06116940307785
H         2.42125527688265    0.95190383378066    2.61903146169054
