30
 energy: -57.465423589720 gnorm: 0.144969266088 xtb: 6.4.1 (79825abcba525fcdf90b791dcacef51065a7a4e7)
C         0.76765620253895    1.45860759300520   -0.43803252079072
C         1.86259943791248    0.43106167532304   -0.18177039087332
N         2.99669479390884    1.16642474256481    0.39521716281568
C         3.85794467608498    1.77632184752816   -0.58818796280236
C         4.37569381183817    0.62296368169918    0.26182253055312
S         4.84608622892045   -0.66076421665618   -1.02065689302480
O         3.83691196330441   -1.67641084981712   -1.23283146124119
O         6.14931172002703   -1.17543314336033   -0.65019708468491
C         4.91073825641956    0.49536899062134   -2.40931162365833
C         4.66810173068577   -0.17464877092386   -3.74497047381782
O         6.07732683764935    1.30476245898996   -2.13886828894453
C         3.74644892048577    1.39808794609790   -2.01235718143098
O         2.81422895874851    1.78167344278102   -2.70069780107242
S         1.51571723724258   -0.68078828660767    1.27221399186784
C         1.04394225685603    0.48275797846793    2.53052220391391
O         0.41030490144395   -1.57286821587516    0.97863838901405
O         2.78850129785028   -1.30938659949459    1.59360880271573
H         1.15219976992609    2.20528274895592   -1.13509506452224
H         0.46253508332164    2.11376566497012    0.38127922186051
H        -0.21928839832961    1.08907784514493   -0.73875747979351
H         2.21221438384234   -0.22279414497391   -0.97319856699543
H         4.11308561582108    2.81645544297626   -0.40413783720799
H         4.99982321191877    0.66817537323789    1.14474653388845
H         5.60433810275674   -0.12452174127810   -4.31045731478951
H         3.85147174522798    0.24878211493305   -4.34184707281334
H         4.40526009356441   -1.23665125164883   -3.74940188138553
H         6.73528740630691    0.69681199907659   -1.73464289128842
H         1.68540526442672    0.17749768983963    3.35809636312234
H         0.01862938386980    0.34683799766350    2.87601598717299
H         1.31332601156503    1.50626598757147    2.25754632866437
