30
 energy: -57.473152808341 gnorm: 0.120174811975 xtb: 6.4.1 (79825abcba525fcdf90b791dcacef51065a7a4e7)
C         0.46839644526825    1.45426158590586   -0.29916726185575
C         1.70074245346501    0.57197615014960   -0.14646708093338
N         2.85504876499726    1.39639204330204    0.23792975087963
C         3.87015450411690    1.84395228148797   -0.68405832048149
C         4.14464620248652    0.65370349579073    0.22631501658519
S         4.58589390514688   -0.74348106940880   -0.94293916960272
O         3.41115087742502   -1.50509046944635   -1.31025209899136
O         5.87590521619399   -1.35209164969913   -0.68606322794477
C         4.94367117281980    0.40603314989071   -2.29193817717821
C         5.03220076879852   -0.07330467333120   -3.72517877382121
O         6.15570484904711    1.05516467025635   -1.84608064657807
C         3.85199989501494    1.45635745286107   -2.10995824546687
O         3.33079291663035    2.03613750346465   -3.04920429038705
S         1.65263767505759   -0.70224711739647    1.21171154964477
C         1.23001723627257    0.27041320862212    2.63827208247514
O         0.47823343055638   -1.54211426845194    1.07268815226091
O         2.97545311659399   -1.26460645079773    1.44044942416887
H         0.45210954062841    1.95431918243714   -1.26920378997888
H         0.61288361927978    2.31468426934499    0.35840325532776
H        -0.45503582821903    0.93071996357875   -0.02672574395132
H         1.86478702982393    0.02508786532436   -1.06848617395236
H         4.30936680336649    2.82573597438852   -0.52900205780975
H         4.74783861192007    0.59576443731473    1.12294104231653
H         5.80424167199236   -0.82920263417426   -3.90237286983140
H         5.29480825920322    0.78548050097028   -4.35443647416093
H         4.11317623947304   -0.54940559111265   -4.07968753769300
H         6.84485334310855    0.37746442857424   -1.66800543943814
H         1.19771602819911   -0.52085401524599    3.38819903579389
H         0.33892873269461    0.89058585326423    2.53602799843953
H         2.06405378620929    0.93532515053919    2.87686634779134
