30
 energy: -57.473013760273 gnorm: 0.127164562034 xtb: 6.4.1 (79825abcba525fcdf90b791dcacef51065a7a4e7)
C         1.13553628012325    1.88065778567617   -0.59488707854018
C         1.86952407347501    0.57910566738127   -0.29883704714077
N         3.10749113051916    0.97594800806500    0.38658198051462
C         4.26864724087649    1.51830111299729   -0.27552181649705
C         4.35805707361453    0.17027409514998    0.42849985943521
S         4.68659561623046   -0.98579238617077   -1.01009401377283
O         3.42758865142486   -1.58007615190805   -1.40596913750433
O         5.82717216744450   -1.84261093648203   -0.75422613617908
C         5.12622234912904    0.26898051080500   -2.23543443705620
C         5.03177830635019   -0.16588285802696   -3.68241578298487
O         6.44395915830788    0.74055675252562   -1.87436401451417
C         4.23188166285844    1.40523621656811   -1.74848297129470
O         3.72243153192054    2.21949633462613   -2.50175966331693
S         1.00814867887058   -0.33405547976617    1.07767206949114
C         1.38008429197190    0.65431709199663    2.50754432180944
O        -0.42051247527862   -0.36658676641123    0.82907865068778
O         1.55521791302903   -1.63405014220400    1.43703102334683
H         1.61408203852789    2.27921574222065   -1.49123480260738
H         1.25826824678741    2.48801471248253    0.30492242954975
H         0.06346432569593    1.80284977053527   -0.80855741121509
H         2.06763875674844   -0.13561689321732   -1.09006322508402
H         4.65897594414074    2.45738776765770    0.10737355111866
H         4.81554688087107    0.12042096619478    1.40796604822238
H         3.95762845617313   -0.31766806698866   -3.83070597497053
H         5.52921848091109   -1.13377617128960   -3.81723317964632
H         5.45463065700400    0.56936620777518   -4.37347246256484
H         7.06309167004173    0.01186745088967   -2.10152228200390
H         1.42071363411414    1.72248179462589    2.29095473845602
H         2.39389491897441    0.38033275443064    2.80118913857870
H         0.56748868971255    0.33464407755692    3.16492520954126
