30
 energy: -57.473732876932 gnorm: 0.130947384950 xtb: 6.4.1 (79825abcba525fcdf90b791dcacef51065a7a4e7)
C         0.30858957504997    0.47114421582764   -0.16602191520617
C         1.79441779328644    0.13630686148706   -0.19092309319732
N         2.50977451959217    1.40460598781812    0.00789245229698
C         3.27949224309706    2.07595308913872   -1.01075347929225
C         3.98960054208338    1.25505510255188    0.05821339455993
S         4.63950870327169   -0.25762667674958   -0.83810844455336
O         3.73870208844541   -1.39052870718674   -0.82978498651838
O         6.03806346476582   -0.51631924325822   -0.55946170947256
C         4.63733369269150    0.60441837702842   -2.42746662616265
C         4.59485591649492   -0.21778888822720   -3.69788061278093
O         5.85640263401555    1.36955614621573   -2.29472097002056
C         3.38892798295344    1.47889718029379   -2.35808342807295
O         2.51993289198346    1.41986577590719   -3.21327205098761
S         2.24473561555390   -0.82181359669458    1.34199153232037
C         1.45864855674717    0.05445756851938    2.67389508720716
O         1.68204044500624   -2.14420530845319    1.14556350068603
O         3.66528231428913   -0.62827329802188    1.59298746186518
H        -0.02777676391034    0.91851631341617   -1.10304359127867
H         0.18241881870061    1.23025595145731    0.60949922329320
H        -0.35908598527805   -0.37864091687701    0.01597244947677
H         2.06307282577706   -0.56115076913150   -0.97673093474905
H         3.18093233089572    3.15690683435196   -0.95904215032142
H         4.45448656273925    1.60891183467344    0.96914844119318
H         5.50167747642548   -0.48181178035003   -4.25176977317556
H         3.87407600923185    0.26842710217169   -4.36609484416901
H         4.12085003719103   -1.13534476729732   -3.33682068949116
H         6.51682478743583    0.89285397676357   -1.74471036557456
H         0.45468083596240    0.26832981085910    2.30532338106711
H         2.10067030480984    0.92245250618730    2.82719070451261
H         1.44192567015481   -0.49288867513816    3.61982558956800
