30
 energy: -57.468456298921 gnorm: 0.146543460537 xtb: 6.4.1 (79825abcba525fcdf90b791dcacef51065a7a4e7)
C         0.84210493007132    1.79320992187096   -0.31612758903417
C         1.84220696026880    0.65457780046585   -0.16206771027719
N         3.10829234931478    1.14702570614298    0.39861791611688
C         4.16786897667085    1.61581265102893   -0.46065388361667
C         4.34034770436372    0.31640308929568    0.31562143660228
S         4.53123826140494   -0.90199193394803   -1.09613420090415
O         3.41106942251644   -1.64620629815449   -1.63125624627947
O         5.73219734624225   -1.66674608881834   -0.82526592219036
C         5.08750904130983    0.34857106783916   -2.27759128246478
C         5.10065566787284    0.05497216674383   -3.76265279556965
O         6.36280435881827    0.68104277359502   -1.68406729912903
C         4.17329735922736    1.52123591028555   -1.93536594790079
O         3.33865172078063    1.97244639852152   -2.70332461948727
S         1.26148566474226   -0.49553702256515    1.18352021828341
C         1.27125985883295    0.64323270718440    2.54838617016061
O        -0.08479839867345   -1.00772639201590    1.01290094706260
O         2.39200127496732   -1.37146144132699    1.45389143553953
H         1.31797089246063    2.36079246546960   -1.11781042676388
H         0.75598402163880    2.29292396387285    0.65158713498600
H        -0.05282438622955    1.30651255073622   -0.72020006145966
H         1.96626590990012    0.09621963045540   -1.08345913707994
H         4.55668806080926    2.51466347684961    0.01023469268424
H         4.91020188770374    0.19766318543525    1.22792801651252
H         5.76369372722533   -0.74808683287518   -4.10074066289113
H         5.30062857697440    0.91307651332545   -4.41542204197300
H         4.10003957250426   -0.33221817811047   -3.97667545690204
H         6.95987526772410   -0.05935834249170   -1.93150731379372
H         0.35479971859736    1.19744093017233    2.75452127137958
H         2.10941232005253    1.33944724136129    2.59188855248457
H         1.38048067715469   -0.08726009671232    3.35405555447481
