30
 energy: -57.467486487116 gnorm: 0.126319815422 xtb: 6.4.1 (79825abcba525fcdf90b791dcacef51065a7a4e7)
C         0.63403792915323    1.14913514579214   -0.57107887191744
C         1.83185053474571    0.30800029948410   -0.14899028973408
N         2.99373149129001    1.05488813588177    0.35304230579668
C         3.79170663362132    1.78346679760170   -0.60258347639967
C         4.41545626832553    0.64468730839365    0.19424469722156
S         4.86211061833188   -0.65161911922024   -1.08406244369566
O         3.80378539223208   -1.62966829847604   -1.21954811077399
O         6.26649317482670   -1.00771170522486   -1.04626067728778
C         4.90893202980218    0.58212173097947   -2.40500040831749
C         4.88861082254428   -0.03519222608117   -3.78713331504145
O         6.08911747569002    1.33056615187216   -2.03597525663440
C         3.72163619706983    1.47027648332936   -2.04506463743181
O         2.77204723984242    1.66118761269329   -2.78790951117263
S         1.44485340170921   -0.66539152398192    1.39157771134051
C         1.27647033210572    0.56309458383216    2.66524176601032
O         0.18803445904671   -1.37671901310965    1.25611917467827
O         2.60786761680491   -1.44976791076634    1.77960006561810
H         0.96106969778254    1.53643599763959   -1.53769254928732
H         0.46012309559113    1.90422004345622    0.19911795258701
H        -0.27577131503364    0.58902809565565   -0.81515796225364
H         2.01890731768393   -0.35896724031331   -0.98342464619337
H         4.05198315154559    2.76128220123231   -0.20637354487877
H         5.11284570803818    0.77359041569663    1.01166026529397
H         5.22151491496883   -1.07127004976426   -3.66653381395870
H         5.50507129398420    0.61567739689962   -4.41862768887118
H         3.94980136565763   -0.03653263766395   -4.34890697077851
H         6.86969724173101    0.73401710460634   -2.00879977275812
H         0.61803230750098    0.11155216802549    3.40828041734970
H         0.77006173945705    1.51009699004630    2.47591806722532
H         2.21048215935361    0.78237440691807    3.18887364648762
