30
 energy: -57.472580049349 gnorm: 0.127773892945 xtb: 6.4.1 (79825abcba525fcdf90b791dcacef51065a7a4e7)
C         0.43748097263131    1.28228670727343   -0.38323827194541
C         1.76360556568466    0.54134542101993   -0.27000778318786
N         2.88367707649586    1.39590640987250    0.14833551371765
C         3.99777722831678    1.93631592476318   -0.59163060124579
C         4.19970250981041    0.71781569156653    0.30016556460898
S         4.61536366621519   -0.69134948718369   -0.86407630100233
O         3.45139811547387   -1.50543054142381   -1.14236583530825
O         5.87079355121959   -1.31327492211860   -0.49309677392055
C         4.92122386113904    0.40055873311460   -2.27239864332872
C         4.51890024094575   -0.27679244902011   -3.56511358831428
O         6.30819654463161    0.80731765838770   -2.27874323844296
C         4.13307090595807    1.68651831026755   -2.04181919332910
O         3.61659900505043    2.33605612252283   -2.93699632380738
S         1.70178169263194   -0.64305584345055    1.16664792809753
C         0.95212806341589    0.33075815680826    2.45095973953199
O         0.76514309444294   -1.68882003974428    0.80193564529310
O         3.03808624516986   -1.04576555786888    1.57959436235643
H         0.64481971652954    1.86844215716289   -1.28030357985051
H         0.23510792245941    1.97352980616606    0.43824262018421
H        -0.37587036845231    0.56155773700731   -0.52486005058799
H         2.00211500283328    0.02192723152974   -1.19165554096504
H         4.31416520606962    2.90483352207380   -0.21384554892902
H         4.66726974280671    0.57981351831176    1.26632947719018
H         3.83210625088417   -1.05938848110631   -3.22646318356268
H         5.45128368385350   -0.81592633810599   -3.77111283093049
H         4.17561124172133    0.39234450892985   -4.35969714416718
H         6.79459638077052    0.33246105243391   -1.56892604586535
H        -0.12408601951483    0.17520445599835    2.36667500359737
H         1.26455813647841    1.37550369953461    2.45189958391653
H         1.24050951891227   -0.22232880158551    3.34850251458100
