30
 energy: -57.472485029425 gnorm: 0.130496469593 xtb: 6.4.1 (79825abcba525fcdf90b791dcacef51065a7a4e7)
C         0.40094261683464    1.53569196712445   -0.13252177225447
C         1.65953798333388    0.67757903094221   -0.13375440244041
N         2.88205569474385    1.46746650043725    0.06965096348602
C         3.90614522018290    1.98131285176528   -0.80671334743553
C         4.22380287115656    0.82701403499880    0.13536166481268
S         4.47787613320036   -0.66256934019127   -0.97394791986770
O         3.22513486892885   -1.22897494077369   -1.42651047655695
O         5.50945481561144   -1.59044784908835   -0.55513034035761
C         5.10757674662088    0.42197021138751   -2.27642131080595
C         5.30038142909278   -0.15783343770989   -3.66149709530628
O         6.28188024721643    1.07364415732897   -1.74208185211611
C         3.92510638687386    1.37866984570675   -2.15586562151271
O         2.97373168721589    1.45902022112466   -2.91640144423586
S         1.71584328951534   -0.61726665994110    1.20445804611106
C         1.35369663553725    0.01393364628077    2.82624319570852
O         0.58654220380195   -1.44163137832104    0.81841201904999
O         3.08318640897743   -1.11568083366782    1.18533130474330
H         0.25647971389998    1.89551754723473   -1.15279122213490
H         0.40071045429530    2.28031730050990    0.66693790770384
H        -0.44196382183101    0.83836170818720   -0.06704948728128
H         1.65421769762464    0.00010660101776   -0.98058345191681
H         4.21438624442290    2.99842148566630   -0.58015957220826
H         4.84185332867061    0.75322641560319    1.02063295345537
H         5.57593153442179   -1.20055103066638   -3.47271470247339
H         6.11404325186512    0.40720908643232   -4.13173246948937
H         4.38739039434394    0.07567115747719   -4.21726467942037
H         7.05703933322610    0.46970416803123   -1.75937128744959
H         1.23805416029766   -0.75677674468926    3.58924380810924
H         0.37071321260255    0.47883131617406    2.74426496652665
H         2.14689326952807    0.71771036244100    3.09117623327251
