30
 energy: -57.468222380275 gnorm: 0.122588200913 xtb: 6.4.1 (79825abcba525fcdf90b791dcacef51065a7a4e7)
C         1.26766014011348    1.99420559044459   -0.24900237539359
C         1.96685604356783    0.67430248205961    0.05000009663370
N         3.31861962707007    1.06275829481349    0.47624277127049
C         4.26267753305723    1.66016614888816   -0.43626496484775
C         4.60911782739650    0.35249323908355    0.26429778107118
S         4.60068055462622   -0.90711826616731   -1.12396995034985
O         3.24884703198162   -1.26995598335372   -1.49259409967588
O         5.63468628786882   -1.92060421099783   -1.05916523062489
C         5.05498601051426    0.39176635484505   -2.29686855199110
C         4.88309726523498   -0.05107066029445   -3.73427263014515
O         6.44936417202715    0.64981620065019   -2.01703624395827
C         4.15359051960478    1.55931328268956   -1.90652978580052
O         3.39060123240892    2.12861590738800   -2.67054983154319
S         1.24406846856475   -0.52562011451015    1.27815810970727
C         0.50736651828907    0.44295239360640    2.57387745807379
O         0.27754971589115   -1.39794741659669    0.63877071298833
O         2.35850860364577   -1.22112735908601    1.90481797312277
H         1.68875231469458    2.48064880319727   -1.13067584791627
H         1.27350660448910    2.64292914240168    0.63004614198016
H         0.24386110599083    1.74777197754122   -0.55257014197761
H         1.93876456894184   -0.00367922310705   -0.79597171910819
H         4.73404285074303    2.60726132274014   -0.18792130370371
H         5.30480997474053    0.25274529589502    1.08721882180635
H         3.92405979948180    0.22581151772539   -4.18417265210180
H         5.17162222235144   -1.10380132182659   -3.83892169310051
H         5.58089180399456    0.54030828329956   -4.33452954159058
H         6.94897487267366   -0.14802802209630   -2.29943275216058
H        -0.32844010532884   -0.09599938134976    3.02164513833730
H         0.03389904820472    1.31549905946182    2.12265960154172
H         1.28445316733830    0.84933541061664    3.22628934042719
