30
 energy: -57.474080571969 gnorm: 0.137309189446 xtb: 6.4.1 (79825abcba525fcdf90b791dcacef51065a7a4e7)
C         0.38819358241361    1.50210904555810    0.15378874581100
C         1.68438218446406    0.74192923361523   -0.09609790084741
N         2.89190664243320    1.52208802356382    0.20899669498208
C         3.76879172641533    1.99942915889395   -0.83217065951488
C         4.25575968310138    0.93075499572164    0.13819773456440
S         4.54728516319315   -0.59931663833799   -0.90481400875416
O         3.30689881675174   -1.26943931113302   -1.23248174661299
O         5.76701305940384   -1.22240095099368   -0.43094582730243
C         4.90426787560590    0.43841914015528   -2.34177386839639
C         4.92910514225268   -0.42629989793072   -3.58412041584241
O         6.24232191052693    0.88994119575833   -2.03367398900051
C         3.83242984775500    1.51835281609192   -2.22797362151665
O         3.16871884070782    1.80540863352833   -3.21137147836530
S         1.82359900292347   -0.66000451458257    1.12283959501925
C         0.98419106976131   -0.15534521853718    2.60623583911831
O         1.13613297662473   -1.78158700624761    0.51179717068578
O         3.22614971827944   -0.89691839884876    1.43127602489209
H         0.19324917163432    2.24114985757670   -0.62538330831582
H         0.52724996383293    2.06638183996527    1.07891698730086
H        -0.46022524945936    0.82084911410067    0.28462364969239
H         1.75788051587993    0.25383684542554   -1.06174815626429
H         4.16320317732968    3.01101676151413   -0.78768049007317
H         4.89388692499948    1.15620448358418    0.98265171869087
H         3.89998225523975   -0.68691336720283   -3.85210051548159
H         5.44047645456534   -1.35568463611988   -3.30630156805905
H         5.31902772218450   -0.11441023776647   -4.55758836810248
H         6.73805418236399    0.35942800446661   -1.37131508926289
H        -0.07456585672210    0.07139053808562    2.47523091550002
H         1.51913805015793    0.68249233080331    3.05452888160409
H         1.08790486092631   -0.99264148137555    3.30109589564581
