30
 energy: -57.477263463516 gnorm: 0.140291214052 xtb: 6.4.1 (79825abcba525fcdf90b791dcacef51065a7a4e7)
C         0.66474737000227    1.25922179611448   -0.50057125348729
C         1.85710713047428    0.39457465364433   -0.11187453909071
N         2.92604624676580    1.30761675503013    0.31657480083527
C         3.90969393775319    1.85144825558571   -0.58758024404587
C         4.25109615632033    0.63247062226534    0.25997832375430
S         4.76335347240441   -0.59687860534622   -1.05921556851247
O         3.84058186220680   -1.68638353187962   -1.29682958520279
O         6.09711341443997   -0.96252063153767   -0.62572786475802
C         4.83984100480499    0.55405540110650   -2.45158276485258
C         4.65271243837597   -0.07267401975156   -3.81685708762395
O         6.16442036611201    1.10624591453129   -2.27906768730844
C         3.77530718862554    1.56282107265872   -2.03062719271480
O         2.80214322216946    1.83585391174945   -2.71501722265463
S         1.63706695652525   -0.71040323189755    1.37177447440993
C         1.04459820980413    0.43659166430313    2.59371333992561
O         0.57130458709472   -1.67591471814417    1.18238649319782
O         2.94889312049131   -1.25956243608384    1.68152600613207
H         0.84889341417472    1.84231039260104   -1.40466840118760
H         0.45961415844059    1.96998773825894    0.30337828705022
H        -0.14721840157631    0.57767849003694   -0.77852391758812
H         2.04880058980545   -0.29271778113304   -0.92857482629075
H         4.27611612185360    2.83353391621216   -0.30106383099351
H         4.88005223142400    0.63738605217467    1.14061806344329
H         3.76012029681976    0.29159516645589   -4.33590801016947
H         4.66513903422904   -1.16334515143619   -3.70406530798824
H         5.55297104217618    0.09445350402673   -4.41565377299854
H         6.61379908668339    0.41807033761325   -1.74019183448912
H         0.86862555214639   -0.07512271669514    3.54066615767218
H         0.07212921803722    0.66665757752245    2.15727271549395
H         1.69634505611919    1.30953525086931    2.68230015379130
