30
 energy: -57.471213397575 gnorm: 0.131543786979 xtb: 6.4.1 (79825abcba525fcdf90b791dcacef51065a7a4e7)
C         0.40017492523670    1.42334430811899    0.19845679577406
C         1.65404884249965    0.60840311539676   -0.09153050322670
N         2.80119168146975    1.51935166603672    0.02713641573777
C         3.70750619374591    2.02433527308601   -0.97505967483069
C         4.20606662964424    1.02984227947555    0.06572764041549
S         4.46065181438829   -0.53862573695474   -0.92879448521492
O         3.33186639337699   -1.40279345465800   -1.20090927582715
O         5.65982509893839   -1.21094724058622   -0.47000424531435
C         4.98866837509513    0.47457931341343   -2.33015092782798
C         4.99533845188494   -0.45681256918122   -3.52356850734446
O         6.23082824609228    1.00668821004939   -1.81723253394441
C         3.92677920652925    1.56970211209447   -2.36393628118853
O         3.36804731533344    1.90123730567843   -3.39732283511243
S         1.81009707885774   -0.74787282021650    1.17605487530392
C         1.14885460873780   -0.12313608515966    2.70321351454439
O         0.94851175678745   -1.82201873451607    0.72019200574397
O         3.24119877350242   -0.87076313934462    1.41112005471437
H         0.10716722747997    1.85480360729580   -0.76033572368409
H         0.58008168805068    2.30880539527476    0.81261878334638
H        -0.39104661532512    0.84237807635183    0.68579045067935
H         1.66448255068397    0.19426768503727   -1.09377777038091
H         3.80608526605465    3.09102845011965   -0.79258486569715
H         4.82415929659689    1.16773741044085    0.94327125615860
H         5.78671949825329   -1.21009363909928   -3.45208214541798
H         5.10027132181687    0.02744589153877   -4.50179279594161
H         4.11579201617722   -1.10488790582348   -3.58145683311402
H         6.84488171046601    0.25404512891019   -1.66763046503520
H         1.14634489737678   -0.82027614867883    3.54197871147361
H         0.10997233040802    0.14761262834559    2.51209724463291
H         1.85682969331160    0.67936310095964    2.92551604766254
