30
 energy: -57.475911860457 gnorm: 0.130300413139 xtb: 6.4.1 (79825abcba525fcdf90b791dcacef51065a7a4e7)
C         0.97108401556744    1.92968805670751   -0.22025829610069
C         2.04036994594299    0.85256956104554   -0.09039306577342
N         3.33025679576067    1.24439591171865    0.49485009991086
C         4.39682933881520    1.67811591750119   -0.37412733836896
C         4.52021781773984    0.35846454211956    0.37694721628258
S         4.52349436805990   -0.88082774408417   -1.02951057581562
O         3.27579924082437   -1.49718138904383   -1.42744763407490
O         5.69905286367814   -1.71082264594577   -0.85719704967915
C         5.01308204100137    0.28448310934365   -2.32239122185960
C         4.83742415096794   -0.04876546652610   -3.78863490404773
O         6.39001571757208    0.51726513915382   -1.94949381407875
C         4.19797774301021    1.47419965185598   -1.82417083642478
O         3.37054093879286    2.03400560006304   -2.52556258551293
S         1.34215097286972   -0.44119333024560    1.05384294760908
C         0.93582818280999    0.31676583576990    2.60952633140519
O         0.08971357529998   -0.96053812429110    0.53846811768917
O         2.38113913765802   -1.40083213464457    1.39736395900397
H         1.17216131856800    2.48331844410373   -1.13914623294033
H         0.86830497191825    2.61012391565984    0.62829708170840
H         0.00544772620207    1.46496820434541   -0.44966925600764
H         1.98184032292185    0.38390212970692   -1.06663164294684
H         5.00028882623099    2.50638264917308   -0.01265812078365
H         5.01768516288737    0.24040813921832    1.33074237329127
H         4.27508883934548   -0.98821011045148   -3.78160713620184
H         5.75661493185155   -0.14691593622991   -4.37846090994239
H         4.24797680988387    0.71464456088591   -4.30507618399137
H         6.63923717757887   -0.33864944982783   -1.53571497928174
H         1.86273216714994    0.24198779215642    3.17943410557562
H         0.10995388619435   -0.25859661483199    3.02904555604607
H         0.64382601791475    1.35777833853307    2.44927719544306
