30
 energy: -57.476705901827 gnorm: 0.135744620380 xtb: 6.4.1 (79825abcba525fcdf90b791dcacef51065a7a4e7)
C         0.55063694487240    1.39278966524531   -0.08216406546174
C         1.85727003004541    0.61179612844376   -0.13856134768541
N         2.99366014232440    1.47039864471457    0.22374379285001
C         4.01133099337091    1.96650917259241   -0.67014200975081
C         4.31876168058633    0.79357970143601    0.25210517328875
S         4.57673859477352   -0.65782188891918   -0.90585041344715
O         3.41499290378769   -1.44307791049358   -1.26461044352799
O         5.77273046123989   -1.28769738182069   -0.38299137317975
C         4.92049936375501    0.42741647310179   -2.31058244149746
C         4.74173922901471   -0.36053392705115   -3.59080110603395
O         6.23582730165009    0.96220148673853   -2.04020547085107
C         4.02085899400988    1.64369117662475   -2.11217111648557
O         3.36489245286889    2.10405456573211   -3.03290893321897
S         1.67897512800619   -0.70030808014133    1.17185905684616
C         0.95176796064394    0.15786291172317    2.54825412564658
O         0.69927860537267   -1.59161685754570    0.58051055187308
O         3.00590846432218   -1.21265359305570    1.48033875819031
H         0.53169724993628    1.92519626618087   -1.03478058451099
H         0.59580847311398    2.10840140239469    0.74213084645194
H        -0.35113464893660    0.77168756770706   -0.12785386608514
H         1.88023772724880   -0.00815895263355   -1.02808075127187
H         4.32190143781968    3.00116627223772   -0.55232882115213
H         4.93537530621969    0.78453581750322    1.14139829781192
H         5.29170623187673   -1.29841601289876   -3.46141749162469
H         5.05889369978495    0.24177046384208   -4.45050011452555
H         3.66774337134315   -0.50469987910989   -3.74147860543413
H         6.84966685840247    0.21034322182614   -2.19455634330080
H         1.58184017203561    0.98215339667989    2.88454540933310
H         0.74323462224333   -0.60198302773154    3.30208081520809
H         0.00066904014736    0.59783931765350    2.23763589383856
