30
 energy: -57.472767809956 gnorm: 0.136139030263 xtb: 6.4.1 (79825abcba525fcdf90b791dcacef51065a7a4e7)
C         0.30954173454930    0.23408091032133   -0.31706097675549
C         1.74652136430630   -0.23387262721875   -0.12593104723376
N         2.54472257419170    0.97723214692611    0.11059712863957
C         3.23155636079750    1.79167847579203   -0.86189882277767
C         4.03172434919979    0.91882152276465    0.09657361096025
S         4.81560846579433   -0.24858450857521   -1.14305071645266
O         3.92846725956455   -1.32820257579824   -1.52040221730707
O         6.15115865108933   -0.69289899356081   -0.79749086672758
C         4.81483060258674    0.90684741979811   -2.53379235092479
C         5.06882334893245    0.21046701011858   -3.85376312830033
O         5.73050084916116    1.96014411999898   -2.15789294985114
C         3.36454748969921    1.28046409156516   -2.24201590078197
O         2.45175042053788    1.13680963554459   -3.03960580814171
S         1.87001629105427   -0.84048527747479    1.63116265646827
C         1.75578296327943    0.60069713635797    2.66542330849562
O         0.81733786214186   -1.76754325662336    2.00043395951832
O         3.24574626459865   -1.29707674857879    1.76269590904094
H         0.15011579537876    0.65138185584725   -1.31292091653890
H         0.22709603202510    1.00562486890909    0.45204587502081
H        -0.36128776065024   -0.59500444514235   -0.06476623507728
H         2.18264467985238   -0.95913258247940   -0.80409849515066
H         3.28179063250430    2.86055514699943   -0.67261517477490
H         4.60750705507509    1.28422979336192    0.93686363408907
H         6.11265687789963    0.21527060861410   -4.18424023909004
H         4.40695771332506    0.56424429287024   -4.65327262674058
H         4.78107920724934   -0.82471655897176   -3.64747953605112
H         6.48815440145344    1.89216320475661   -2.78019009260596
H         0.79145248278199    1.09312972390250    2.53460093273513
H         2.56361341419619    1.30072413964453    2.44983379058419
H         1.82771966673851    0.14568141800380    3.65660335633911
