30
 energy: -57.475388386106 gnorm: 0.136576163385 xtb: 6.4.1 (79825abcba525fcdf90b791dcacef51065a7a4e7)
C         0.45681216118148    1.22117460104430   -0.53175446409942
C         1.75506521976421    0.45663042956966   -0.30718189639251
N         2.84300852150378    1.30807953538243    0.19407584354321
C         3.92593207732458    1.86155793574895   -0.58164967173801
C         4.19028112471255    0.70044326869060    0.36848179221956
S         4.67643204819260   -0.59500603152239   -0.89621106457016
O         3.57961022115070   -1.51895055910153   -1.09190785774478
O         5.91795239217208   -1.19242745437282   -0.44650433349192
C         4.95717328429822    0.48823388024450   -2.31640875904780
C         4.66380727304804   -0.24923708166647   -3.60553784799832
O         6.32960974103890    0.92570751474159   -2.19715570732083
C         3.97348923171766    1.62111381146740   -2.03893305511683
O         3.28454670670868    2.15474873774950   -2.89367086300579
S         1.66190365441322   -0.69720704288550    1.15247155454671
C         1.12206534906979    0.36482484754247    2.47171905494068
O         0.61509960902772   -1.68126963803522    0.95309310509837
O         3.00525432689238   -1.04883243651278    1.58856590387676
H         0.43537700349985    1.77915171249847   -1.46956883999408
H         0.42280028910381    2.04243567924612    0.18795113903904
H        -0.40835158679390    0.55290389970831   -0.45459662392206
H         1.98391543675244   -0.07061327622866   -1.22683307256035
H         4.09710595902530    2.89003111381901   -0.27539561740833
H         4.75555071818800    0.64501869300158    1.28964118874123
H         3.58498822423796   -0.33003702452712   -3.77420159764995
H         5.16424413696999   -1.22105331394330   -3.51849717284399
H         5.11965367194845    0.17593128078878   -4.50464326871126
H         6.85558584444128    0.31114270354747   -1.63896821591769
H         0.05820021524071    0.51563570844059    2.28467712341401
H         1.76896257095345    1.23093281342035    2.61485416154840
H         1.16668979250432   -0.19714470121274    3.40812226179452
