30
 energy: -57.472484238346 gnorm: 0.133843230695 xtb: 6.4.1 (79825abcba525fcdf90b791dcacef51065a7a4e7)
C         0.49910857913325    1.11341173261922   -0.45284721654179
C         1.74510606371261    0.26407709564027   -0.23710995881432
N         2.82073563323410    1.17620756746641    0.17627189798081
C         3.78294479076259    1.89062379767497   -0.62658226780237
C         4.23419771350581    0.71342705181513    0.22863471006376
S         4.72481323861588   -0.63060996755843   -0.98249720468245
O         3.66711965321405   -1.46733029384391   -1.50801811217696
O         5.96367651251008   -1.26010854322171   -0.57082913644970
C         4.97844563520889    0.53246914059776   -2.34341727343770
C         4.95313567761678    0.00112214252228   -3.76074243646341
O         6.17525813291700    1.26659502661747   -2.00007294372712
C         3.81470552210107    1.47261692286557   -2.04362548337508
O         3.18586472808020    2.00809406438874   -2.94240700864857
S         1.52807308931119   -0.72173041387280    1.32867688476049
C         1.62628816535730    0.50624124381349    2.61015669565075
O         0.23398670146763   -1.37688760644597    1.33493306589690
O         2.63154187743223   -1.64907265990948    1.53067371580020
H         0.62430612115319    1.73136093806007   -1.34377823740731
H         0.37306266030301    1.80835123499072    0.38068396846618
H        -0.40230773462739    0.49220833559333   -0.50386038284719
H         1.93041345398779   -0.48664692204592   -0.99749884460983
H         3.95732006366283    2.91276754631002   -0.30152143860021
H         4.73010797963184    0.79253325745017    1.18725428140592
H         4.00025833130447   -0.52915470857451   -3.85901682431489
H         5.76474643206604   -0.70691898864870   -3.96666879023805
H         4.79794173034714    0.82990914021616   -4.45786623069474
H         6.94417357190210    0.65741678890847   -1.94019835547738
H         0.65282837896008    0.98908918029256    2.51650020929905
H         2.38006174918407    1.29390171678758    2.58728648014677
H         1.74365146534423   -0.13381062713671    3.48834320137456
