30
 energy: -57.472339308119 gnorm: 0.120291377305 xtb: 6.4.1 (79825abcba525fcdf90b791dcacef51065a7a4e7)
C         0.46232695278523    1.14904808002978   -0.43101218233213
C         1.72208266175144    0.34155652317065   -0.14571495823189
N         2.88910543888686    1.15762710351932    0.21751007947429
C         3.85342036430550    1.79972147935854   -0.64192171002707
C         4.25970839134147    0.57937323034247    0.17447112407915
S         4.71703901359488   -0.67502474035135   -1.14132302343402
O         3.53279958887856   -1.45015481131572   -1.44420780593403
O         6.01057176141224   -1.32011618748019   -1.03572327810263
C         4.98906101803380    0.60003130394626   -2.39408874477452
C         4.99700127550733    0.04452409185457   -3.80232506613190
O         6.17302607336414    1.14151202082802   -1.76622595522897
C         3.86758315903842    1.59342802401683   -2.10513481598900
O         3.05143820948156    1.99597023590108   -2.91867761051318
S         1.60655385492960   -0.67345037979436    1.41217536809947
C         1.20638732170098    0.47698871601131    2.70682116214243
O         0.44132918710566   -1.52438292931460    1.26353171255196
O         2.87308840944198   -1.27580626433386    1.80136341879565
H         0.83899038498448    1.85180479408143   -1.17636538235557
H         0.02333890453605    1.68539183401353    0.41351585224182
H        -0.31387718889504    0.64306455831813   -1.01627724103187
H         1.87582465999896   -0.33692079887894   -0.97766959212667
H         4.24442890852195    2.73599016508108   -0.25286838420253
H         4.83749466177419    0.51996635377546    1.08758133206136
H         4.03567291136756   -0.40553594116904   -4.07087743324909
H         5.76886872840047   -0.73420281597508   -3.78667383169482
H         5.13829953837317    0.85766786248616   -4.52050794124481
H         6.73664278635235    0.33670301280910   -1.74314554746035
H         0.13176081860135    0.52056744122715    2.88797412631085
H         1.65159674504398    1.46612049425111    2.59495705877145
H         1.65195160480122    0.08925614196890    3.62648849391939
