30
 energy: -57.465182250424 gnorm: 0.138089501225 xtb: 6.4.1 (79825abcba525fcdf90b791dcacef51065a7a4e7)
C         0.56668859078908    1.28702680534709   -0.24243915917680
C         1.83438966698948    0.46090773307674   -0.06670383621426
N         3.06842225530592    1.17835044567669    0.28298891035734
C         4.04554459393835    1.83273979035847   -0.55236632720492
C         4.43158041804752    0.58359836863960    0.22957966440061
S         4.82256982396289   -0.64138206057992   -1.13443274104670
O         3.74490026162247   -1.57025579701073   -1.40053562380732
O         6.06983835868707   -1.34814436382900   -0.92152544227526
C         4.96963427928487    0.55333149755364   -2.48358706837522
C         4.73175368562187   -0.10947691151700   -3.82369104877525
O         6.29064731874318    1.13158739846598   -2.38494143054469
C         3.96337513593240    1.59746190738363   -2.00895221037031
O         3.07879027901711    2.10089619402208   -2.68278327017649
S         1.51941214410783   -0.68926388098094    1.36455527034935
C         0.70762996335794    0.40685853962098    2.50441334415180
O         0.54404341521768   -1.70708367780065    1.02304631158523
O         2.70688410542655   -1.05865117413971    2.12077818373166
H         0.59622105825932    1.73859184218652   -1.23567154766092
H         0.55780603922657    2.15067943925636    0.42661087403243
H        -0.30565846042501    0.62409294053672   -0.21842488248244
H         1.88482982743434   -0.12071753821301   -0.98064282238238
H         4.34724444336281    2.71225597750238    0.01001933239935
H         4.99456172656482    0.46366459731670    1.14598796712812
H         4.32450579437753   -1.12495040508439   -3.78139009568815
H         5.69353464649511   -0.16179378380001   -4.34779051610715
H         4.05438071069476    0.54318303723112   -4.38239980790184
H         6.78653014958464    0.37095521383369   -2.00883912837342
H        -0.30094008747926    0.76951404606973    2.30241072199766
H         1.40658163660553    1.19402120706597    2.78892727453480
H         0.71593798689763   -0.15382433873733    3.44261255927583
