30
 energy: -57.472597156018 gnorm: 0.139862451197 xtb: 6.4.1 (79825abcba525fcdf90b791dcacef51065a7a4e7)
C         0.51454260261494    1.27813252986893   -0.23575545341719
C         1.70877756772034    0.34223264315365   -0.10041935562077
N         2.83176299398738    1.26979777407676    0.09546882636038
C         3.81296719689501    1.91715530412337   -0.74058044112151
C         4.23577243580896    0.78480450770871    0.18669236610723
S         4.64823799317365   -0.58915464271731   -1.01999236977140
O         3.64813193104845   -1.56916815548903   -1.38653053610644
O         5.99545145666470   -1.01762828441653   -0.70070020546427
C         4.94932336072927    0.50979906900175   -2.42385638702635
C         5.02879497166981   -0.16892965597228   -3.77470516612676
O         6.17422821882517    1.18727575723866   -2.06355134161571
C         3.88381891248070    1.57344357309815   -2.17605674705096
O         3.14912983231383    2.03767476313931   -3.03320673704810
S         1.56299068379671   -0.77146155789487    1.38586447633367
C         1.39615455176786    0.25644042949095    2.82646654012325
O         0.30828098279292   -1.46408715309437    1.16247464548368
O         2.77230288634364   -1.58136586631305    1.39122494198785
H         0.36762782772303    1.60316760156489   -1.26728925381135
H         0.64226515900643    2.19483382558598    0.34471711816991
H        -0.46164140782143    0.86811555737511    0.04708414032386
H         1.84524857887451   -0.31605630747276   -0.95138818729168
H         4.27024245456575    2.86520785514169   -0.47049745694430
H         4.78074254993141    0.88666148375241    1.11608409918396
H         4.36671486285744   -1.04088164790019   -3.76142794169062
H         6.04737750929338   -0.54983352461106   -3.91556602049883
H         4.73086718297582    0.55222246329998   -4.54160365156151
H         6.75847821656722    0.52743070594257   -1.62861399865998
H         0.40922950105586    0.69949559059915    2.68783504447269
H         2.18178145616475    1.01048590518830    2.76891247002110
H         1.40428965610992   -0.19412362693030    3.82224660231301
