30
 energy: -57.465901514483 gnorm: 0.139838293451 xtb: 6.4.1 (79825abcba525fcdf90b791dcacef51065a7a4e7)
C         0.56101537931161    1.27089331669199   -0.36210203658248
C         1.75469696563887    0.35595035302152   -0.12038893676499
N         2.92675683993698    1.18526746563104    0.19322637351455
C         3.91835342668048    1.80371912301982   -0.65238892293112
C         4.29852508965132    0.60849220996782    0.21231866019432
S         4.81766051363499   -0.63387990176452   -1.09190131737697
O         3.80395267254734   -1.59828365642651   -1.46245582346299
O         6.19093401655045   -1.01362763411447   -0.82650952916727
C         5.03388767050501    0.59251298519606   -2.40277588830913
C         5.14928418576172   -0.06428430373424   -3.76184976893961
O         6.22840501047095    1.38507928070289   -2.21796979151737
C         3.78624155751837    1.40500498167686   -2.06918940930600
O         2.80372988464629    1.47990271180540   -2.78963777103669
S         1.40371517641786   -0.63488865920006    1.41768063356424
C         1.21960550153229    0.42375492955803    2.83370622691117
O         0.13819510966180   -1.31192085275134    1.20788063998354
O         2.51807856052568   -1.56603535614744    1.51550601864626
H         0.57247951761095    1.57060481197893   -1.41154728369790
H         0.61216211810423    2.08289371044227    0.36703587806127
H        -0.38582790556483    0.77852145266005   -0.11289304493424
H         1.75739672975102   -0.36419008171716   -0.93125702220275
H         4.15849246204988    2.84887853466629   -0.47682041713043
H         4.96723898671556    0.54406842681551    1.06073348741102
H         6.04181746956555    0.32014968746187   -4.26625186508867
H         4.35815220548636    0.38952765524619   -4.37062297678253
H         5.13131719005937   -1.15615059631210   -3.69506789216459
H         6.94148808196425    0.88188323903693   -1.76606236679527
H         1.43053436610147   -0.15518704008105    3.73363557552541
H         0.23916193677282    0.88519726584218    2.71160762164251
H         1.98680991074960    1.20193654715620    2.81173249923989
