30
 energy: -57.477085252004 gnorm: 0.127168479239 xtb: 6.4.1 (79825abcba525fcdf90b791dcacef51065a7a4e7)
C         0.46155983875098    0.90618458138797   -0.37566295874018
C         1.79670803779521    0.25083094564966   -0.04655434226949
N         2.78176640925980    1.31062905329719    0.21099907082986
C         3.51125794568500    1.95830219644390   -0.85162647209290
C         4.24665527684388    1.05958873019393    0.13443737819693
S         4.80219732197111   -0.33944242857288   -0.98273075951598
O         3.80534596981496   -1.38301472313161   -1.09333401513395
O         6.19739655440714   -0.61476813209098   -0.70320238122483
C         4.72226216108349    0.60700651986389   -2.52124647152733
C         4.63296655569403   -0.45233171697201   -3.59902643300982
O         5.86409915503288    1.49121847342793   -2.46154887920720
C         3.53138448456517    1.52566182758935   -2.26448436391427
O         2.66109079868475    1.81663180229261   -3.06941297166657
S         1.87565277877671   -0.88724368084064    1.42625319394307
C         1.21491151258391    0.10426284804943    2.74537672228491
O         1.01132017544043   -2.02569428713273    1.17969886753896
O         3.30172419470251   -1.03542681348886    1.67679621405826
H         0.56720633766042    1.60178505613486   -1.21009242290589
H         0.12195708406298    1.39241453775698    0.54186258573724
H        -0.20188907966202    0.05902493107953   -0.58351732619283
H         2.07034080001300   -0.44506323278281   -0.83203062803984
H         3.66573216504497    3.02407122364080   -0.70628780021004
H         4.93743265044723    1.25318471906943    0.94467415932295
H         5.22325564995168   -1.35972288347087   -3.43462848146950
H         5.03697051670936    0.11388492024920   -4.44674067852092
H         3.57974398332111   -0.73121454165765   -3.69853128574506
H         6.58868986417833    1.04140970964172   -1.97312854392248
H         0.18208915300170   -0.17812565513601    2.95291546446999
H         1.28116956902405    1.13381103414200    2.39218118814289
H         1.79250770655542   -0.03805572075463    3.66231736484376
