30
 energy: -57.474456965782 gnorm: 0.132874033545 xtb: 6.4.1 (79825abcba525fcdf90b791dcacef51065a7a4e7)
C         0.26827771787766    0.84926454611258    0.26082968407910
C         1.66147383654956    0.30545341612694   -0.02847224191087
N         2.62834703961297    1.41210369683938   -0.01038441474362
C         3.28552683886944    2.05554867482378   -1.12164708693353
C         4.11423107543981    1.34468392187005   -0.05922642850552
S         4.76228176417861   -0.19447606258558   -0.91069377682839
O         3.85600071208369   -1.31394368528482   -0.76774018841855
O         6.16157759006540   -0.33764428800274   -0.56141551234906
C         4.70974830986716    0.59547943910606   -2.53623872574612
C         4.89810654957520   -0.44659052980004   -3.61808538892666
O         5.69154542955323    1.65596107104341   -2.51095185754314
C         3.36261662581911    1.29620656817631   -2.38703512123210
O         2.47842745641278    1.13462063029769   -3.21291900683040
S         2.11541304323958   -0.89050605490263    1.32586460641406
C         1.26768823405222   -0.27779366114662    2.76311798416285
O         1.46756350962471   -2.13585979722316    0.96074174201961
O         3.51935377021499   -0.81842948568049    1.70291252646017
H         0.02017206533607    1.29711358221489   -0.70310421337458
H         0.21031680773260    1.53449538960480    1.10977135035983
H        -0.45638768303722    0.03020606944048    0.33189760318922
H         1.69414860809191   -0.19806904063651   -0.98842749710813
H         3.13702294770193    3.12976365286300   -1.19134662671079
H         4.60847374789264    1.84037524737700    0.76609210407393
H         5.96609360713956   -0.68595995720517   -3.64862311635165
H         4.55812463806993   -0.05135972977647   -4.58278473961908
H         4.29318383731165   -1.28238287496253   -3.25411519676262
H         6.49522257092588    1.29220686062686   -2.94419540403536
H         0.18037581299442   -0.31713846439390    2.68734656492221
H         1.74057416943687    0.67872806019874    2.98795519529318
H         1.65078494990393   -0.92247770028738    3.55827298559545
