30
 energy: -57.469407019732 gnorm: 0.148919154743 xtb: 6.4.1 (79825abcba525fcdf90b791dcacef51065a7a4e7)
C         0.62289464281839    1.50284720463826   -0.35384314012007
C         1.74795127318485    0.49920399088616   -0.13619787379296
N         2.94368728379481    1.25074660426485    0.27030533764661
C         3.90008757287967    1.78123547021222   -0.67027507473726
C         4.29668872337367    0.63137198029017    0.24697001508818
S         4.69974209324555   -0.72127723826810   -0.98667007451955
O         3.52255433307949   -1.50639770429844   -1.29130701272677
O         5.89476971279056   -1.43682307364535   -0.58613992603253
C         5.03231698791840    0.44296548488002   -2.32947261430113
C         5.02419371414012   -0.22843334541119   -3.68628449192267
O         6.32312971737402    0.98323874893585   -1.96740411352938
C         4.05781406365839    1.59965318026060   -2.12832185737999
O         3.43114670351286    2.09655795602839   -3.05047062251005
S         1.38703547345830   -0.62037924378007    1.30840634136308
C         1.04575223560197    0.37192759787594    2.74318994332157
O         0.27018842392665   -1.39305713007972    0.79894464598638
O         2.63771493236116   -1.33841311570109    1.50497179783102
H         0.61481078042695    1.69583225873335   -1.42808014973497
H         0.61149418145034    2.43575576041867    0.21462355523028
H        -0.31743069787420    1.05055783185029   -0.01877604850099
H         1.81363908822202   -0.19754822359877   -0.96465309521469
H         4.36056383325922    2.72109410609207   -0.37791128817912
H         4.93994281274957    0.73707332462121    1.11079163689203
H         4.69720498531956   -1.27114235737897   -3.61799892698930
H         6.01355983858114   -0.09463191415295   -4.13981703940527
H         4.30075440432581    0.26018728020355   -4.34570854519139
H         7.06455718883754    0.34124543458755   -1.90381219105934
H         1.49490575705129    1.31354649664603    2.42514499921218
H         1.63878308956737   -0.09849097428807    3.52812781097607
H        -0.00494205083353    0.55495811736807    2.98234141322849
