30
 energy: -57.469901414344 gnorm: 0.134505478363 xtb: 6.4.1 (79825abcba525fcdf90b791dcacef51065a7a4e7)
C         1.14114056645939    1.93591727528654   -0.40246908044102
C         1.89992432774438    0.63310149049086   -0.18489193204300
N         3.20154204571419    0.99614189118833    0.39289588407001
C         4.29932909648040    1.54529758222032   -0.36480003170170
C         4.45360727073124    0.19475141822543    0.32297928067642
S         4.65824022237485   -0.98250190706120   -1.12138208625039
O         3.37958291096718   -1.55811336446464   -1.48012400378623
O         5.75229911831151   -1.91692007221576   -0.94697142611414
C         5.18131379488734    0.28858658152624   -2.29607946396948
C         5.00477305382796    0.08966829218803   -3.78639678878439
O         6.55494018461519    0.57290119909052   -1.94750803363550
C         4.17968128684848    1.33786811545588   -1.82302071010599
O         3.48875952250290    2.02702585023202   -2.55628289644269
S         1.14759347929758   -0.34444393989162    1.21117805278178
C         0.94595278912049    0.62545840933931    2.68711218605820
O        -0.21776652867795   -0.49422801470038    0.74503810974676
O         1.97254167500552   -1.47561517277003    1.60907483007125
H         1.49602355404727    2.53539548775361   -1.24269385542823
H         1.13899845495018    2.61573722598610    0.45277531362170
H         0.13638034201267    1.53654572691749   -0.58137306532035
H         1.88447365096651    0.03060309085459   -1.08648693274377
H         4.86470218284382    2.37864785346989    0.04352561698573
H         4.93195096000818   -0.19636099989231    1.21143569983918
H         4.67988475630907    1.03488608198663   -4.23342872818569
H         4.26478326057365   -0.65113046970737   -4.11208409746867
H         5.97387805513782   -0.13547247011038   -4.24148113969139
H         7.00998115689127   -0.28579383996992   -1.80089770965259
H         0.05960576266196    1.25300240271289    2.58653829395723
H         1.84768865454701    1.13110792650330    3.03395174194191
H         0.74731927226006   -0.17469390915521    3.40471449487346
