30
 energy: -57.479042401769 gnorm: 0.126442563729 xtb: 6.4.1 (79825abcba525fcdf90b791dcacef51065a7a4e7)
C         0.79810886879776    2.01342196807287   -0.06979390497001
C         1.87293576172492    0.93508934602912   -0.11845069148759
N         3.17207143522504    1.40306792660914    0.38462814093193
C         4.29265487718303    1.70343993725765   -0.47262379427215
C         4.26100665566940    0.39204089289604    0.30200386108748
S         4.32347567296484   -0.90115598083134   -1.05362118888966
O         3.05864622124839   -1.39665287142241   -1.55329920336689
O         5.41758729985962   -1.78438727485084   -0.70241827649807
C         5.02605360585729    0.26045156778282   -2.24787325203831
C         5.04637946367351   -0.25380937913446   -3.67156682345254
O         6.35508203005584    0.49510652358562   -1.73037271994676
C         4.23432206718462    1.52758460077442   -1.93871463113621
O         3.46662247198456    2.14678598989700   -2.65788892562321
S         1.52511845675861   -0.48040826519846    1.04172076759869
C         1.11746767271498    0.34564838040932    2.56198467772274
O         0.35356239078514   -1.13815162692981    0.49513159705478
O         2.67671769663446   -1.34022293317437    1.27182434504316
H         1.25714551832466    2.84063439559144   -0.61412715534442
H         0.63026658166078    2.38901795291367    0.94231248804746
H        -0.10720632613728    1.83132415071799   -0.65995673310263
H         1.91221951159517    0.40484017526480   -1.06365395026030
H         4.87670284988138    2.54708575851079   -0.11485441673651
H         4.87299683562151    0.05463630109376    1.12829834838813
H         4.27776541238285   -1.03303798824122   -3.70092403452583
H         6.02258436244958   -0.74310725618606   -3.77182402295588
H         4.98513940129780    0.50510289186680   -4.45722352491196
H         6.64961896957347   -0.30565361466568   -1.24257641408643
H         1.81767442437072    1.17399173636162    2.67641986644708
H         1.30343706588322   -0.35172737264169    3.37941303959495
H         0.07796591107247    0.64215280378198    2.40020305046484
