30
 energy: -57.478131194931 gnorm: 0.132272066886 xtb: 6.4.1 (79825abcba525fcdf90b791dcacef51065a7a4e7)
C         0.49258194708040    1.32527555387687   -0.13779056896622
C         1.81982917612012    0.58118294417354   -0.20964150138314
N         2.94001479946769    1.43921232938886    0.20123016531589
C         3.91886516385532    1.99149379352600   -0.70300907809049
C         4.30672772984284    0.85092528168600    0.22945172827182
S         4.55808363741822   -0.61630137512820   -0.90986646461946
O         3.45693491516245   -1.47315872031293   -1.29490647423820
O         5.78274876618394   -1.14606807499460   -0.34412462827722
C         4.87480380675646    0.46123982617752   -2.32682769677217
C         4.78794618122043   -0.22387414830993   -3.67399340385754
O         6.20223502588173    0.91796375019220   -1.98256628798765
C         3.87268287864283    1.59406427310974   -2.12556562636917
O         3.04407457702176    2.03649026422948   -2.90508613252509
S         1.73807629961015   -0.70321437398856    1.13729879642516
C         1.27405815378507    0.15773937374542    2.62161577923912
O         0.68196206957177   -1.67589759009976    0.93128966444694
O         3.09187736535816   -1.23018403587551    1.22637953886688
H         0.47387695085399    1.94199909781956   -1.03812157879589
H         0.26958336585536    1.91598699530569    0.75380034334242
H        -0.29517877546688    0.57483291213919   -0.26938184943246
H         1.80026602432301    0.00503813877188   -1.12822248833000
H         4.17944622370287    3.01109077322537   -0.43214242539752
H         4.96786741319096    0.91220074255011    1.08401363428474
H         4.74274142425715   -1.31505808368455   -3.59588591388140
H         5.67652982256402   -0.02291958589987   -4.28430176775445
H         3.91573810101769    0.08692235008152   -4.25675685009451
H         6.72486110350541    0.15348952618914   -1.65339279645106
H         0.21049840512980    0.30221262483027    2.42795173105449
H         1.83179346889565    1.09377238410249    2.57825445275769
H         1.48457346509795   -0.55691159503788    3.42137160252051
