30
 energy: -57.475304125195 gnorm: 0.144592177178 xtb: 6.4.1 (79825abcba525fcdf90b791dcacef51065a7a4e7)
C         0.51290282456728    1.39205073374063   -0.17044375354174
C         1.72897188725579    0.47471427442474   -0.16087972926432
N         2.87335079375013    1.30034244173319    0.24970593328598
C         3.88297374932516    1.91259421810591   -0.57892008822329
C         4.21301419403318    0.65328340563347    0.21229862533198
S         4.61536681625240   -0.66163276878247   -1.06170585775812
O         3.48609498048360   -1.54793769625332   -1.24663163793648
O         5.86771966049532   -1.28635059281854   -0.68506111627007
C         5.02699021600462    0.52037686909310   -2.36654501625526
C         4.98168283580529   -0.14293879070218   -3.72659663942696
O         6.37096655174615    0.96643382829175   -2.07680876238789
C         4.05708480268489    1.64673459821179   -2.02209503999033
O         3.35605720716457    2.08543518282620   -2.91991843914666
S         1.49126866446589   -0.70728257966116    1.25932758605554
C         1.30159193016544    0.36319659040871    2.66568749071302
O         0.28740414233664   -1.46728607707963    0.98177657809754
O         2.75709398284740   -1.42158400505824    1.33594001635857
H         0.59397061887508    2.06325812173350   -1.02729985870739
H         0.49080953715215    2.02100167651148    0.72260457713854
H        -0.40297825683996    0.79025840740258   -0.16301300213822
H         1.77981602214420   -0.10844215930733   -1.07382007953257
H         4.17365585890741    2.91161894838750   -0.26538760841446
H         4.92866288491074    0.60988550428956    1.02291556465172
H         4.15235441456835   -0.85778650990251   -3.73240522453451
H         5.95865057118884   -0.62377903392632   -3.85608265425557
H         4.80906853388992    0.59918579779392   -4.51171448512434
H         6.83004793521027    0.20329570120516   -1.66114239812288
H         0.40063026566740    0.91479921028238    2.39450443109931
H         2.26988648124956    0.86410339802498    2.69027845427061
H         1.21457566711251   -0.24685866775537    3.56841271611882
