30
 energy: -57.476871566708 gnorm: 0.126198798242 xtb: 6.4.1 (79825abcba525fcdf90b791dcacef51065a7a4e7)
C         0.25658776890099    0.46574359278217   -0.32353204452515
C         1.73559469705633    0.14817205533940   -0.14434371332798
N         2.61667187647149    1.30170509061352    0.08567816649034
C         3.39497088231164    1.99115972821514   -0.91417922529104
C         4.09102849850477    1.10019317532765    0.10684960549057
S         4.79770374045567   -0.30576500379290   -0.91191009188207
O         3.99746216545376   -1.51183073710624   -0.90913228861112
O         6.21574150142404   -0.44495598198772   -0.64673836107093
C         4.68301393174141    0.59321046714647   -2.47647878238401
C         4.63916267787417   -0.17338497030756   -3.78115856992492
O         5.74579764515762    1.55457419746309   -2.28817886984242
C         3.42144409283328    1.42870955039602   -2.28045112754729
O         2.46858422418718    1.53549365210444   -3.03585828505523
S         2.00883380745161   -0.84447953307580    1.40826422585358
C         1.59255928260465    0.30439180847864    2.69921784982999
O         1.10817755308598   -1.98076571808306    1.44828525817066
O         3.43112581346398   -1.10747896019600    1.57051858880788
H         0.23929173008778    1.07475692635564   -1.22912430140623
H        -0.16741737203634    1.05502553538267    0.49290481913620
H        -0.34529157429242   -0.42642739964065   -0.53046089476257
H         2.05376957412892   -0.57502452913805   -0.88722195491784
H         3.54038650236240    3.06804194304478   -0.91947923761621
H         4.66598230044027    1.46018320310590    0.95004090025597
H         3.74701565762219   -0.78625973306582   -3.61597730441251
H         5.48510559163685   -0.76007899951120   -4.15879679102594
H         4.43849193199010    0.45076766049498   -4.65701208416851
H         6.57405400487572    1.05608714382781   -2.11093298471512
H         1.09574786181010    1.17704631356128    2.27355348683133
H         2.51469964839091    0.72607500046768    3.10039999608235
H         0.95711078936710   -0.11449821155785    3.48368483076623
