30
 energy: -57.471827703233 gnorm: 0.129076901225 xtb: 6.4.1 (79825abcba525fcdf90b791dcacef51065a7a4e7)
C         0.25389625534351    0.58986328945699   -0.24683676658476
C         1.71103375568258    0.17407382605166   -0.09098087240024
N         2.64373147257484    1.30086390856528    0.05137289071194
C         3.41786429530439    1.98970809860851   -0.95213291379413
C         4.11705132672145    1.09101187462550    0.05994419624284
S         4.74935235231587   -0.28766659331097   -1.04160958286939
O         3.81221025433215   -1.38253016711481   -1.17587532288861
O         6.13700459838138   -0.51468627498701   -0.69031971275574
C         4.72098887460329    0.65310940988519   -2.58541069194366
C         4.92262275702892   -0.25975822279567   -3.77612363188607
O         5.74524648213093    1.62771442470505   -2.28503140001487
C         3.40636027912544    1.37061795627698   -2.29390226702361
O         2.44537346736600    1.35839944378400   -3.04645778374995
S         1.97834822574681   -0.80890842770332    1.46879381274706
C         1.59348150656791    0.27841028536735    2.82133465235719
O         1.09009190375561   -1.94469417773978    1.62665799954158
O         3.39705000814005   -1.13401494524075    1.46964953468929
H         0.21486397264723    1.29877980396673   -1.07581661240666
H        -0.18683131890762    0.99171689311294    0.66851868689719
H        -0.37052217198003   -0.25527610837912   -0.55810578007389
H         2.03844944335736   -0.48356044746169   -0.88874823038304
H         3.35731830319692    3.06909074564702   -0.84205838867368
H         4.55864003603680    1.15061648989752    1.04614039244488
H         4.99891165445584   -1.27455081249595   -3.37214017260112
H         5.83978806021825    0.14428719451252   -4.22108995714529
H         4.23250461569018   -0.31903942907912   -4.62298685783103
H         6.48877874813317    1.19094144936455   -1.81354101699051
H         1.17124759120674    1.20100915840728    2.42125033216550
H         2.45588675636168    0.54854816853817    3.43157181317517
H         0.90903336360340   -0.23136143826923    3.50420770794694
