30
 energy: -57.475643717920 gnorm: 0.113475490898 xtb: 6.4.1 (79825abcba525fcdf90b791dcacef51065a7a4e7)
C         0.27146752388018    0.21331903661207   -0.32195622699512
C         1.71815441119601   -0.15455926325635   -0.01833774021918
N         2.51969495242398    1.07549366158475    0.04760423528749
C         3.16611933575706    1.86167456977248   -0.97458291107459
C         4.00614784688686    1.03300803900881   -0.01100573891212
S         4.75889671782093   -0.28412373412340   -1.11214733447099
O         3.91645382953195   -1.42207796578024   -1.41271176813062
O         6.16878601372787   -0.55928433509958   -0.91974132925701
C         4.72249010254822    0.82992189506424   -2.53579150868658
C         4.98592536808340   -0.01660065784803   -3.76289471381681
O         5.74692903547623    1.77858811647070   -2.16196858977043
C         3.37227780948264    1.52727636026528   -2.39916238904146
O         2.57980918150080    1.71077582621038   -3.30927562932067
S         1.96901259833662   -0.88406954332051    1.67739015502798
C         1.63043794806788    0.42126360088016    2.83550227798662
O         1.00095279405440   -1.94276029978764    1.89178177105686
O         3.41021126222018   -1.04946213909375    1.79571779047602
H         0.12951017176485    0.38139665772865   -1.39101738415371
H        -0.00605797647842    1.09131369769753    0.26601290376937
H        -0.35141140206935   -0.65175864151965   -0.06757495073611
H         2.09990366013840   -0.98567561690816   -0.60111532121821
H         3.14855178635187    2.93990574020767   -0.84057485115162
H         4.61667006915864    1.49930667987525    0.75120459005575
H         6.00505613915836   -0.37314440158170   -3.58102756127382
H         5.05700096888356    0.48896577009358   -4.73335376431108
H         4.22718979927035   -0.80100173431523   -3.84028929183180
H         6.55827196731831    1.27116053043750   -1.93801784604329
H         0.59776947577562    0.46619444246683    3.18351760593424
H         1.75264954785885    1.25435895488820    2.14259309276061
H         2.33255635108617    0.30683052746749    3.66531364222538
