30
 energy: -57.463184713238 gnorm: 0.132117032140 xtb: 6.4.1 (79825abcba525fcdf90b791dcacef51065a7a4e7)
C         1.22281604661674    2.06716708058744   -0.35408888931907
C         2.13648504582246    0.89770013199813   -0.01061015986567
N         3.41356554606034    1.29090846981649    0.60118893994499
C         4.54291772700068    1.69507243055267   -0.20007691651967
C         4.54690050726753    0.33358736181616    0.48341414545067
S         4.57051209147011   -0.90721741399503   -0.92151489262298
O         3.27866889378721   -1.52270077617841   -1.13902404600428
O         5.64230614499040   -1.87510466431790   -0.79915048941420
C         4.91554971525159    0.26794937571034   -2.25159680494671
C         4.24610871583647   -0.09914386763202   -3.55883516985609
O         6.33626732529612    0.51094718251196   -2.35976259303339
C         4.30163756822975    1.52782105226584   -1.64837275263460
O         3.64637267248519    2.35826558219859   -2.25744954442723
S         1.43527348552394   -0.51988871250162    0.97394681019508
C         0.39770400523813    0.30292572613610    2.15977018290958
O         0.47028546073256   -1.39310924934593    0.33346755988821
O         2.60319692724888   -1.10781309480871    1.61325071469901
H         1.61286949681791    2.71445325361212   -1.14159929848419
H         1.14811252234343    2.66877719285516    0.55480460219067
H         0.20313106426859    1.75906749019457   -0.61170207444966
H         2.23608225758728    0.29532103051278   -0.90690053973591
H         5.15882286004570    2.55188265780935    0.05951159200216
H         5.03857152034066   -0.09855597799591    1.34518440410867
H         4.65571180115507   -0.97528468483705   -4.07208872550871
H         4.32395432708093    0.66063292318793   -4.34567645778554
H         3.17797444704409   -0.23603621052552   -3.36569194949186
H         6.69850265299357   -0.19786419259156   -2.93620517114242
H         0.48054003029855   -0.22709197353720    3.10937907822137
H        -0.56529067111727    0.31788118014259    1.64837574531569
H         0.72353409902621    1.32004380902076    2.39205801341552
