30
 energy: -57.471498298836 gnorm: 0.135470385357 xtb: 6.4.1 (79825abcba525fcdf90b791dcacef51065a7a4e7)
C         0.58922648971964    1.81629391089027    0.12451816261620
C         1.69159406170048    0.79861650862735   -0.13918635200097
N         3.01248841178187    1.34995641778818    0.19414222020221
C         4.08115096996994    1.75068231319894   -0.68800909971630
C         4.20390740330615    0.46170681163665    0.11466797534210
S         4.28732189550830   -0.83893422327920   -1.23268295697208
O         2.95501986441879   -1.08234935812599   -1.74327987812048
O         5.11666786850670   -1.98651494887232   -0.92322374313477
C         5.27576750992302    0.26990656956095   -2.26352397272178
C         5.74796843414631   -0.17300945147586   -3.63196561511103
O         6.41132884568076    0.53968126687817   -1.41093476039118
C         4.31883418876970    1.44899819221270   -2.11497907114959
O         3.75602260040452    2.12448175394666   -2.96170796710718
S         1.38258623605197   -0.49248695421657    1.16778504029140
C         1.48655648854828    0.33796364146556    2.73599838441275
O         0.00566353038872   -0.94760104646179    1.13804128736095
O         2.45867070705928   -1.47161835676981    1.12590861942472
H         0.76989662447955    2.64929782435878   -0.55721236422739
H         0.68174571726918    2.26221959386806    1.11759076728166
H        -0.34866971042839    1.25001962408785    0.09747145355073
H         1.63552064548297    0.37694496895079   -1.13676618047432
H         4.55721387008494    2.67436122269228   -0.37015614222004
H         4.64364684272259    0.38393345340133    1.10042494782868
H         5.85286969187098   -1.26268306269448   -3.65279296595726
H         6.72660240297265    0.29257939511605   -3.79912573100073
H         5.10076831997519    0.10466347880552   -4.46921372024106
H         6.75763006215848   -0.35199636572716   -1.18532334468421
H         1.72949774505906   -0.49633951255612    3.39513070502993
H         0.45827062574773    0.61294810629861    2.97289163382158
H         2.26156147590835    1.10765393208248    2.69604582728845
