30
 energy: -57.466003429195 gnorm: 0.130386878771 xtb: 6.4.1 (79825abcba525fcdf90b791dcacef51065a7a4e7)
C         0.53994935808047    1.58469633120952   -0.11456711243738
C         1.77872934411697    0.70258270445463   -0.20243791176837
N         2.94426628978028    1.50865506400957    0.18694205995378
C         3.96881598113391    2.06902135669437   -0.65987492532817
C         4.30441058359392    0.91051996207502    0.27075272433779
S         4.57689301718101   -0.61437260838066   -0.78491568613540
O         3.52580671467483   -1.57984282206619   -1.02590049383828
O         5.84221375547318   -1.19892733593020   -0.38769980759701
C         4.92731797218946    0.33566768359222   -2.28285147713606
C         4.70733943765801   -0.43546330572168   -3.56688702660482
O         6.33501422569259    0.65052858044279   -2.19098103975518
C         4.06745186832959    1.57417489597835   -2.04881267867586
O         3.42910292855167    2.11928732946445   -2.93501117335390
S         1.64427342286672   -0.69306172009917    1.02422683982893
C         0.89422297855813    0.09113785909063    2.43213537786976
O         0.81450557774611   -1.75033221737730    0.47870499174124
O         2.98620866575401   -0.95627004421901    1.52256498941223
H         0.42032156439711    2.11813521767067   -1.05925006403936
H         0.60517485704997    2.42432085574864    0.58140632070324
H        -0.30473921610223    0.88953646841447   -0.04898238575923
H         1.82209404891522    0.19888841564909   -1.16187949746116
H         4.24116166727185    3.12024552668028   -0.61981441529156
H         4.88188768697473    0.70095782491939    1.16167379129553
H         3.64151993298592   -0.57868372208239   -3.77266196745110
H         5.07492371511075   -1.46818832033172   -3.53858922580206
H         5.16757803457228    0.18963790398714   -4.33784976514786
H         6.61413963494573   -0.06484014665996   -1.57758831575251
H         1.67827609913437    0.14037557373171    3.18868939072039
H         0.15411134794096   -0.61391253210649    2.81193190624033
H         0.35864642775844    1.00183226742603    2.15205408041345
