30
 energy: -57.476377751968 gnorm: 0.128661961209 xtb: 6.4.1 (79825abcba525fcdf90b791dcacef51065a7a4e7)
C         0.99186798902939    2.35789650184072    0.20252952294797
C         1.84268039874003    1.16098998243333   -0.20238354856069
N         3.21615609515895    1.34142077335648    0.28838629244774
C         4.43936488302740    1.55825987008472   -0.44479344092119
C         4.22450745895885    0.24694889663000    0.30026822528429
S         4.11365026278132   -0.96898708889423   -1.12212066189072
O         2.84840986663788   -0.95128670722894   -1.82485978071631
O         4.71619077666296   -2.27226941204716   -0.92483566910526
C         5.30413002178772    0.01190835686784   -2.06540635977274
C         5.52676038059019   -0.35341160204583   -3.51756265214425
O         6.48044601685097    0.14685060081910   -1.23639636486048
C         4.49089869106993    1.29194140069588   -1.89743548089872
O         3.85677735912612    1.82722373969087   -2.79261571086167
S         1.34685716939635   -0.27439045689106    0.87671352957609
C         1.46191091297494    0.48415385180476    2.48018609477729
O        -0.02940063262573   -0.67841844496476    0.66083042659669
O         2.27848753258491   -1.39249553094543    0.85894731842514
H         0.99141225799922    3.15015539988075   -0.54821635075391
H         1.41413800159850    2.69461345057643    1.15222024113394
H        -0.06496000578923    2.13874672497424    0.39262251878767
H         1.73822466570761    0.94466439522312   -1.25993204849336
H         5.05879902708861    2.33683499019657   -0.00779074123130
H         4.55428502735863   -0.07885327359504    1.27814148237181
H         6.27470150107221   -1.15284592600856   -3.49980109362608
H         5.90650197487464    0.55049389416772   -4.00867475592886
H         4.61277448516077   -0.79258516054479   -3.92830710003059
H         6.61656997048592   -0.72637360653182   -0.80643846374414
H         1.54929857629635   -0.40321539101153    3.10826001247777
H         0.45697508415665    0.84887876348559    2.69509631264261
H         2.22929400973069    1.26031492193127    2.53805885617187
