30
 energy: -57.479967243744 gnorm: 0.125377633246 xtb: 6.4.1 (79825abcba525fcdf90b791dcacef51065a7a4e7)
C         0.99280076773277    1.93938771417597   -0.09164477898783
C         1.95125636710968    0.75596790815614   -0.12772868939249
N         3.24614945157017    1.16959562305768    0.43084945545330
C         4.33631621716883    1.70846729941228   -0.34501493649493
C         4.49021855885064    0.35765966041595    0.34233522417582
S         4.56677892832946   -0.90172140773387   -1.04405485741853
O         3.32824538429074   -1.55112548499212   -1.41728113380187
O         5.73233815513464   -1.73591320599677   -0.82930617161745
C         5.02687280942997    0.31874238065031   -2.29623998718531
C         4.65646074845220   -0.11653303975511   -3.69806417666746
O         6.41115124248249    0.52470531860194   -1.93493846789586
C         4.22950702795065    1.52424289265013   -1.80734291688213
O         3.67080950874058    2.26730357979476   -2.59835659959434
S         1.27038322644981   -0.51563859425644    1.05126956224205
C         0.95398013090595    0.43373943875966    2.52039226981014
O         0.05590540060399   -1.02561470436299    0.44390011693978
O         2.42390156359523   -1.35688969092806    1.33429211526907
H         1.26297752829435    2.60736778402685   -0.91146236438218
H         1.07114699761008    2.54775633339239    0.81243055654797
H         0.01797205331578    1.43863271386364   -0.09252994338047
H         1.90322217005104    0.30445391889425   -1.11258627798001
H         4.66882279973235    2.61349565068897    0.15619579222578
H         5.11817279353948    0.23795423325803    1.21553643511458
H         3.88223931373161   -0.87015337264907   -3.52068268100645
H         5.52239003907297   -0.59534797416759   -4.17065559158849
H         4.28262374892028    0.74650059015678   -4.25696800078904
H         6.82854549114623   -0.35660864165253   -1.81253835119721
H         1.67383147676485    1.25085998847671    2.45984749216128
H         1.11662435890705   -0.19692296761053    3.39498844374207
H        -0.08192336260896    0.77841569080728    2.46791071080932
