30
 energy: -57.477869887357 gnorm: 0.124594513440 xtb: 6.4.1 (79825abcba525fcdf90b791dcacef51065a7a4e7)
C         0.81666370702982    1.87423101962046   -0.29108431382519
C         1.78908614644790    0.70201820729829   -0.26400397141179
N         3.04558446801228    1.18852586691847    0.32282461574867
C         4.21408306775129    1.70480756936790   -0.34715752425595
C         4.29127517202130    0.37761944166333    0.39677158673764
S         4.36588936030297   -0.85936085111646   -1.00974614306766
O         3.07111203093748   -1.31242293634330   -1.47156348757807
O         5.37168884488680   -1.86920600567234   -0.74687464277961
C         4.99579578140113    0.32329575721856   -2.22371775906005
C         4.79684592380802   -0.10022952088751   -3.66344903138927
O         6.37187633274542    0.49522553057530   -1.81625147903202
C         4.35479504084267    1.64684599845997   -1.81705225509671
O         3.97895162765578    2.49771475534733   -2.60746280816715
S         1.46313675456900   -0.59125806176330    1.03668879578818
C         1.31437216826409    0.43592858786968    2.47977846177126
O         0.21371094795950   -1.29444379281305    0.81670095974405
O         2.70337019296050   -1.34546380421504    1.14348038926714
H         1.00392279795163    2.50123736898043   -1.16463499882846
H         0.87473694520000    2.40653992393162    0.66121682099865
H        -0.19810328103550    1.49953018989802   -0.46685297645924
H         1.98317012096751    0.09872878957261   -1.14405505995669
H         4.54785899684806    2.66116238226110    0.04632464004048
H         4.67858318823071    0.29493336603061    1.40389212748740
H         3.85356972252027    0.09653508173930   -4.18339165403748
H         4.99508489398468   -1.17613972132210   -3.73800420976191
H         5.53304555773133    0.38626057824226   -4.31020409770682
H         6.68819579520575   -0.29367248597151   -1.32279837987842
H         2.17173370947769    1.10243242747163    2.58097847335887
H         1.33400957603078   -0.23857332765809    3.33638118250404
H         0.40860925328548    1.04336390822746    2.55235913367118
