30
 energy: -57.472924680039 gnorm: 0.132169605559 xtb: 6.4.1 (79825abcba525fcdf90b791dcacef51065a7a4e7)
C         0.35340168713681    1.35377881431646   -0.15527063694399
C         1.71982544938151    0.68103170967365   -0.12845631446709
N         2.84746023800847    1.57378495759499    0.17366484791496
C         3.85919478039999    2.00159523186987   -0.76131271487588
C         4.16559022368356    0.88511131688242    0.22884008313299
S         4.38426478677026   -0.62691157349935   -0.85741404084127
O         3.30183367189533   -1.38485883871442   -1.44804730375560
O         5.56489121428620   -1.40023573003416   -0.52785032855999
C         4.95906461085419    0.42278526485713   -2.21274704444477
C         5.05621689930873   -0.39106913283011   -3.48553269017713
O         6.20873301632713    1.01793813459153   -1.79644398291996
C         3.96569222716952    1.58025309760539   -2.17371466516158
O         3.24257243892054    2.14308422346955   -2.98012869836905
S         1.78121496216786   -0.72868326776386    1.08790842416913
C         1.42612061297522    0.14173322327340    2.59656154383386
O         0.74953593708254   -1.69642137411268    0.76689282513831
O         3.13860805462886   -1.22373263977369    1.26346423164536
H         0.17570793227636    1.59191572093444   -1.20551321716557
H         0.40890286264821    2.32648402614523    0.33906418690627
H        -0.40335599868777    0.69356491668271    0.28345797513312
H         1.79285448441996    0.03146719309234   -0.99381709932945
H         4.22240906320201    3.00373480504456   -0.55002879266327
H         4.80347790734045    0.98992272721724    1.09674000173825
H         5.74850794004003   -1.22751442293826   -3.34439792329364
H         5.50995304167310    0.14291841937776   -4.32899029432713
H         4.08786763575033   -0.80700828995438   -3.77921441273728
H         6.85452282831924    0.27936772236337   -1.85461019911220
H         1.07692761029500   -0.55352790619058    3.36090036367715
H         0.55307978528016    0.77427510704775    2.43286315854734
H         2.26476425647841    0.75718562704229    2.93204218152372
