30
 energy: -57.471754421902 gnorm: 0.144132562176 xtb: 6.4.1 (79825abcba525fcdf90b791dcacef51065a7a4e7)
C         0.55543928401180    1.33596622567132   -0.05762427416092
C         1.80053985139310    0.45885106255913   -0.08617558250840
N         2.89470105776775    1.38588902920225    0.23516133108574
C         3.80699553055101    1.90993101547298   -0.75170777355173
C         4.24874943318924    0.77285487962545    0.16083199221940
S         4.64937199429317   -0.60732047520895   -1.04274483013565
O         3.62189945563400   -1.58190191452513   -1.34187699263197
O         5.91939878936223   -1.11775214843279   -0.56628632082974
C         4.95992659975975    0.55553760744046   -2.39200490605310
C         5.03863220791883   -0.17335153307539   -3.71650741376600
O         6.19495941650021    1.20799305826636   -2.02027634037994
C         3.82665478905089    1.55626606156912   -2.18638004727246
O         3.11128871789707    1.93333251120687   -3.10074159292161
S         1.55269043742912   -0.75875453943981    1.30185016604596
C         1.25134670072017    0.14023366737191    2.80543363683682
O         0.35096394886519   -1.47455529439193    0.91790695216339
O         2.82138511724070   -1.45899489900760    1.43781698236921
H         0.33941129038324    1.73082195649602   -1.05196555774781
H         0.63844274149175    2.18482918069506    0.62512372682703
H        -0.30574154031393    0.74257161537743    0.26993915542968
H         1.85846770430926   -0.13578827562917   -0.99125295649723
H         4.13999177989622    2.94431976004461   -0.75329418699210
H         5.08273278683010    0.93481035208304    0.83118894338100
H         4.14899469938143   -0.80570882694868   -3.80308678466704
H         5.87165935964817   -0.88069742039509   -3.62613328400969
H         5.22786898268743    0.52864572377633   -4.53403045787212
H         6.89326722148003    0.53494819087367   -2.17930734314363
H         0.37100878863089    0.78354499672342    2.77910271652227
H         2.03906990887724    0.88240106562318    2.93879923809809
H         1.12736887457886   -0.55222245349086    3.64196582397887
