30
 energy: -57.463875827162 gnorm: 0.130590815427 xtb: 6.4.1 (79825abcba525fcdf90b791dcacef51065a7a4e7)
C         0.69791924681426    1.22164184763605   -0.44153750222180
C         1.88283040595644    0.33173229823734   -0.08873703713570
N         3.09455773959483    1.04614170586320    0.33691728527453
C         4.01106112299020    1.75151295937991   -0.52522235422151
C         4.44633102391599    0.45419102869294    0.14433972633935
S         4.95415232201681   -0.75094301256834   -1.19869752420504
O         3.83179589684964   -1.59312585211308   -1.55370874609069
O         6.25843633143983   -1.33741786839645   -0.96330054588453
C         5.05633047311562    0.59563937096038   -2.40097093097436
C         4.89296688214018    0.19561783061817   -3.85185891802652
O         6.31464347047809    1.26359796838967   -2.15670465559775
C         3.87598852411089    1.45995426785500   -1.96761581374343
O         2.92942335389350    1.67306161582841   -2.70828063813971
S         1.27251683313326   -0.58892422091150    1.41143532800083
C         0.88214016551756    0.62328519565991    2.65155850154471
O         0.01019660969858   -1.25833517244132    1.16170287805925
O         2.28742083935122   -1.47671258013407    1.95935084522668
H         0.74472778075544    1.44029950972175   -1.50984996411756
H         0.99700326676909    2.07211057096984    0.17559653804011
H        -0.24513979489751    0.77588419749166   -0.10540191283329
H         2.12795161960851   -0.46180303333401   -0.78611347239127
H         4.40058128776823    2.68496650863257   -0.12799743058105
H         4.97467146747952    0.32477423669769    1.07988445521874
H         5.90496214823938   -0.07745004626392   -4.16828607710517
H         4.71107996769326    1.13930811133666   -4.37987949283861
H         4.19227446508222   -0.63247090851649   -3.99417479832836
H         6.95638862440920    0.64568855351350   -1.74165627736967
H         1.28744645499436    0.38176113200225    3.63488477576907
H        -0.18103732113503    0.77868797992537    2.83759691112687
H         1.44386415478788    1.51642997235961    2.36623298851047
