30
 energy: -57.472806194489 gnorm: 0.139477091525 xtb: 6.4.1 (79825abcba525fcdf90b791dcacef51065a7a4e7)
C         0.76281120425535    1.20311493985019   -0.46399542407836
C         1.85925456170112    0.24767648618166   -0.01081671936177
N         2.99502096416975    1.09480743385180    0.37937473952829
C         3.89764780383804    1.70615024567855   -0.56526096080802
C         4.34912508614620    0.49359571371568    0.23891393427043
S         4.86941172808673   -0.67990524093025   -1.12716692477144
O         3.90097327607401   -1.71060346721468   -1.43502562700786
O         6.22594355537608   -1.09445832165478   -0.82969690644815
C         4.88979767721628    0.56417065459047   -2.43905313087736
C         4.80043544136039    0.07129515530187   -3.86764298730537
O         6.09370291810832    1.32510432946885   -2.19252034589906
C         3.81944643914639    1.57368582457801   -2.03498461639498
O         3.06626637495547    2.04933411626369   -2.86952836164526
S         1.37683695920053   -0.72353457884706    1.50398707393095
C         0.96948936362451    0.46644338007328    2.76008081705488
O         0.16975264399281   -1.43052702528953    1.12053068498106
O         2.65134322891250   -1.35908803571810    1.80417917841716
H         1.04987766175071    1.53349142436668   -1.46386439440341
H         0.63915659697639    2.07795981457472    0.17862320775825
H        -0.16530347592917    0.64918788125339   -0.64514544422142
H         2.02205467303930   -0.50145563962215   -0.77789808096946
H         4.21655927798684    2.71596587412892   -0.32150498281585
H         5.09149722204803    0.57740362341371    1.02185461033464
H         4.03229070324620   -0.68725966292866   -4.05033091874440
H         5.72253265890095   -0.46265049833383   -4.12663851536333
H         4.63458840589064    0.91508538758758   -4.54400637921623
H         6.86787951782899    0.73007122652965   -2.30432483008824
H         0.17919148120665    1.15172976133307    2.45129374498758
H         1.90334472072423    0.99907526575682    2.94262979545363
H         0.60225349702377    0.11723519491352    3.72850404196805
