30
 energy: -57.477922257674 gnorm: 0.126764343185 xtb: 6.4.1 (79825abcba525fcdf90b791dcacef51065a7a4e7)
C         1.01841856470170    1.96469240774252   -0.30277262788388
C         1.96259664687631    0.77534235532600   -0.18279003599989
N         3.22387724826183    1.24248061396953    0.40949251877346
C         4.27207690998142    1.70356516185298   -0.46771347147981
C         4.43168211065988    0.38338079728711    0.27556097772293
S         4.43382158757454   -0.92085258540752   -1.07089745608740
O         3.12481534413561   -1.40437284614111   -1.45521459308086
O         5.50887695884170   -1.86316245723187   -0.83250844279995
C         5.11841684682273    0.29321374895060   -2.22266049638174
C         5.19973622581973   -0.17731805559004   -3.65924249075481
O         6.37680063138730    0.72297949191250   -1.65612898069586
C         4.12085162145329    1.40368001569297   -1.90679295557381
O         3.33959592470844    1.87908102651323   -2.71525950982161
S         1.32979714146672   -0.43085004189821    1.08814382954460
C         1.14228927192073    0.42475288780405    2.63492614246125
O        -0.01500768644951   -0.89079909055220    0.79852940859820
O         2.34866071453490   -1.44811775392787    1.30143505932834
H         1.43634188869437    2.65726873450225   -1.03555626316987
H         0.87203250166162    2.51606473723581    0.62897969756172
H         0.01996378035933    1.63436835174638   -0.61102810053216
H         1.94617510874707    0.24400896617353   -1.12805814649284
H         4.86973493660341    2.57192210593295   -0.20387602108715
H         4.97383982368850    0.22748593718337    1.19908578283524
H         5.36859273678983    0.68824098422609   -4.30818136171061
H         4.17504111287363   -0.49671710852308   -3.88379558791461
H         5.80475123337253   -1.07131755919791   -3.83722103183358
H         7.06461479860746    0.03378924723733   -1.78970488335407
H         1.86591569120145   -0.06183942511247    3.29000655689202
H         0.09673686271389    0.23524185915877    2.87990045282295
H         1.30707737258046    1.50525434311032    2.63860958990830
