30
 energy: -57.474090472005 gnorm: 0.136098573153 xtb: 6.4.1 (79825abcba525fcdf90b791dcacef51065a7a4e7)
C         0.75404314628824    1.82983221080906   -0.08379116751443
C         1.86059068685726    0.78342077107920   -0.11536950500367
N         3.18909296149576    1.18363031628743    0.36915070629806
C         4.14512450662135    1.77479059280262   -0.53492045203372
C         4.52693633025704    0.53926771234775    0.27038694225853
S         4.57948768863200   -0.84139286064048   -0.99649684446743
O         3.28355314177719   -1.42271279688540   -1.27508186523126
O         5.68409820845540   -1.74453438022350   -0.74215013316516
C         5.04790652329143    0.32077021009982   -2.30001003310282
C         5.00492821377750   -0.19620355424902   -3.72221671286407
O         6.36744016297591    0.79387397748483   -1.94760387445769
C         4.12132256000824    1.49136020600919   -1.98504143114839
O         3.41146711277812    1.96134503387623   -2.85980093652251
S         1.39799263141721   -0.53838479969645    1.11322369342110
C         0.94423289113909    0.34312138324212    2.58862196094855
O         0.23476825369105   -1.20558313466763    0.56033573356758
O         2.60419195954162   -1.30465630436504    1.38948605223427
H         0.78693864453758    2.33237637947661   -1.05212013057136
H         0.86146717804265    2.55558593987357    0.72574223746589
H        -0.22998026577539    1.37635278983693    0.08083484215929
H         1.94288193993825    0.25867031819702   -1.06087556577428
H         4.56043925333872    2.73379451023840   -0.23713799815343
H         5.10145572240758    0.60875630446955    1.18484590585897
H         4.83467930438063   -1.27294588524564   -3.61990399448795
H         5.92822060862050    0.07855000147575   -4.24612659066891
H         4.08005487452245    0.26043559002176   -4.08696954856162
H         6.78327309533239   -0.01764107739031   -1.58094281593683
H         0.27019057626983    1.11190332462476    2.20891298397054
H         1.83778474759994    0.77828386369317    3.03729264005503
H         0.42914607810587   -0.36316454293139    3.24474530751531
