30
 energy: -57.466843404690 gnorm: 0.139931140274 xtb: 6.4.1 (79825abcba525fcdf90b791dcacef51065a7a4e7)
C         0.51199616734427    1.08518992962659   -0.41599322909187
C         1.82626378338640    0.38395523695203   -0.09757184600859
N         2.99262192367814    1.17784710662520    0.31375518072765
C         3.99863669278173    1.78405969202976   -0.52365297105368
C         4.30843315133786    0.48933008039191    0.21696760919222
S         4.71195859606651   -0.71200532766915   -1.16431442851143
O         3.58299152277390   -1.55395742669224   -1.49828876592556
O         5.99370869081713   -1.27057995752121   -0.78269637078586
C         4.95017922526867    0.57858793735282   -2.40802090263755
C         4.79450220245327    0.08249418728957   -3.82979321242464
O         6.23168236528261    1.18849076610754   -2.13424263091212
C         3.91519511994455    1.61873482333278   -1.98975499019726
O         3.25793374863834    2.24314143326727   -2.80713411343431
S         1.61626152835855   -0.71648392376841    1.39089746885095
C         0.92750999245174    0.45802949468855    2.53365319551160
O         0.53108259605009   -1.64588501404995    1.14083754705953
O         2.81363533174084   -1.14755759116491    2.09721269288218
H         0.51894333716329    1.46289686568580   -1.43999661480263
H         0.33317640683579    1.94125165826747    0.23882317953483
H        -0.17408259352193    0.25703824057998   -0.20502382409891
H         1.98872124176601   -0.29315096651649   -0.92898714211667
H         4.35957032923574    2.73799866700642   -0.14871768666338
H         4.90300621391929    0.52693702840087    1.12040818198423
H         3.79162960232221   -0.34861651436654   -3.91474462188153
H         5.64751598123633   -0.59445773665473   -3.95841478517358
H         4.90937939502845    0.89699855663743   -4.55113952046086
H         6.76029172002174    0.36092149334840   -2.17443333491673
H        -0.13362999975428    0.44903495796371    2.28178291507053
H         1.25578916785778    1.47935111062392    2.33809854110338
H         1.12093284356405    0.25094109447971    3.58928290128606
