30
 energy: -57.473030372385 gnorm: 0.135368769076 xtb: 6.4.1 (79825abcba525fcdf90b791dcacef51065a7a4e7)
C         0.31984460748111    1.20452827368879   -0.08672894164500
C         1.70261511518829    0.56866843733721   -0.15036513793163
N         2.76899371420215    1.55369086024363    0.07857437403529
C         3.67291167425156    2.10467281581044   -0.90130452584087
C         4.19002076380449    1.11522233337242    0.13522959571534
S         4.52216273676061   -0.45989929167191   -0.82531888029207
O         3.38010398124464   -1.29346924524144   -1.13491823772020
O         5.79070144465910   -1.03733328948830   -0.42795157017873
C         4.81801360654897    0.44018484158752   -2.36528857291973
C         5.00925113946919   -0.36451234877332   -3.63322843309184
O         6.06251571206701    1.09190539380899   -2.02519868178644
C         3.70887651388746    1.48048830655873   -2.24027815582175
O         2.83786854379220    1.56224901575169   -3.09153898489181
S         1.93805002045573   -0.71352300375587    1.18048559817504
C         1.32220635954735   -0.07681720683526    2.72161940633570
O         1.13130046940922   -1.87739363410633    0.86665445613044
O         3.37690668118450   -0.91138389245504    1.27510223334593
H         0.17755038490375    1.98411696450755   -0.83725379981803
H         0.28470712248849    1.79834006019324    0.82965288194108
H        -0.50762379044439    0.49379139187158   -0.19254253405054
H         1.77222786375243   -0.10970857358052   -0.99361793648412
H         3.99082255027423    3.14379312435120   -0.89800020542464
H         4.73244560929919    1.22116968613020    1.06565254355860
H         4.08882342665362   -0.57955886536388   -4.18585348809504
H         5.28402798715809   -1.38648708966338   -3.34599118717336
H         5.68191727305046    0.12978636983023   -4.34043680542376
H         6.49701617443082    0.31128564710159   -1.61561816105704
H         1.66199440697436   -0.87603638525299    3.38141514023094
H         0.25357464700154   -0.06781459619419    2.50470490973849
H         1.88357135678379    0.84384585573886    2.90022776383380
