30
 energy: -57.471626979260 gnorm: 0.120061559284 xtb: 6.4.1 (79825abcba525fcdf90b791dcacef51065a7a4e7)
C         0.80958408032280    1.01207425108120   -0.85462842023658
C         1.87656100680231    0.15649050700014   -0.18383909260247
N         2.98948551416029    1.00668387730735    0.26159977591074
C         3.91203433166852    1.82939112249586   -0.48195137695680
C         4.42544456039767    0.61639401599657    0.28346709784255
S         4.86076155732495   -0.67254336906634   -1.00615266982677
O         3.93628808732150   -1.70286199931320   -1.42897789952079
O         6.24837867830174   -1.02820935769297   -0.78583087124835
C         4.84004193563298    0.54912008306329   -2.33892982399198
C         4.49996614295625   -0.16643817363582   -3.62893202603119
O         6.14984239035794    1.14952511196395   -2.22437472409311
C         3.94277395498863    1.72211762425079   -1.95548366388065
O         3.25173598443223    2.43330068143890   -2.66729117544211
S         1.36295635771655   -0.69843658118422    1.38966595638713
C         1.13869774886969    0.67399816020963    2.49686153795698
O         0.17994620542480   -1.49118970788897    1.11405912503063
O         2.49515071658446   -1.44314839628209    1.92065557350198
H         1.28710441655812    1.53107983599510   -1.68763577936265
H         0.55796641450330    1.79993005009985   -0.14078354056661
H        -0.03295303361604    0.35199518722900   -1.09015806896841
H         2.19156165630620   -0.63330729909391   -0.85697403410401
H         3.94465292916214    2.85241499553078   -0.11697563075290
H         4.90560372073268    0.63812045254321    1.25306051999563
H         3.42025235925654   -0.29901180594708   -3.50455755757409
H         5.06863932952224   -1.09582065418768   -3.75262088960242
H         4.57847323422173    0.52063591521683   -4.47670585568943
H         6.81131984678041    0.54202528637728   -1.82524369250321
H         1.11531688324295    1.59600384489996    1.91471338199073
H         2.01255383630283    0.65134961586838    3.14875820533920
H         0.23045920321855    0.65697574493449    3.10469791576185
