30
 energy: -57.468261962684 gnorm: 0.139581180669 xtb: 6.4.1 (79825abcba525fcdf90b791dcacef51065a7a4e7)
C         1.10193453057134    2.01609900023684   -0.07600092184463
C         1.95774294753911    0.75857929483678    0.00559415697802
N         3.30123324777060    1.14283501872264    0.46081596108987
C         4.30433452697154    1.61116320799559   -0.46399124255038
C         4.49783316887785    0.28221620674117    0.25522751009562
S         4.55793034988379   -0.91575892363180   -1.18533610900877
O         3.33668760318596   -1.67749165259618   -1.33803925266909
O         5.78952938558527   -1.65198953050651   -0.98125383858041
C         5.00933321310161    0.32190133708255   -2.42372957315561
C         4.90735381974408   -0.13764082773430   -3.86254924391959
O         6.32752410789586    0.68351648895020   -1.95384283408721
C         4.21909283111063    1.53304351290477   -1.93721257424870
O         3.51614631818931    2.25146398843226   -2.62983294133643
S         1.32337285147553   -0.47224840230030    1.25188704897490
C         0.53048339527716    0.42944186469774    2.56262427286052
O         0.29571494195773   -1.10461245682812    0.44692457163776
O         2.29054585110188   -1.33067656661488    1.91978464673835
H         1.17763720076040    2.48224818229230   -1.06000690532331
H         1.48303567280461    2.59556325527793    0.76814706300657
H         0.06559131799804    1.69543528278661    0.07961046015751
H         1.98217952280720    0.07975997334733   -0.83981924002257
H         4.78367068315556    2.55432799583741   -0.21594661199838
H         5.12645864927173    0.07662832521296    1.11179034189933
H         3.91598063867098    0.02828200487877   -4.29668684996577
H         5.25170840156000   -1.17806711450418   -3.89960308484882
H         5.57762146839905    0.35786777350207   -4.57118676683559
H         6.94482302330781   -0.08124230541323   -1.95356121452396
H        -0.19843791638395   -0.24335636803677    3.01600477813823
H        -0.09422243292836    1.23317672649317    2.17165166066474
H         1.29687855577194    0.89411842639062    3.18821697722092
