30
 energy: -57.475552517329 gnorm: 0.128468714932 xtb: 6.4.1 (79825abcba525fcdf90b791dcacef51065a7a4e7)
C         0.84495970977448    1.83752554518182   -0.25359469546853
C         1.90430874371501    0.77317502892019    0.00205970510746
N         3.21247630481102    1.29838438605015    0.41762985825778
C         4.26523107247088    1.75472647967885   -0.45659594213760
C         4.43045835081345    0.44977992765585    0.31192959877351
S         4.59702144194660   -0.81168453754683   -1.06464003588893
O         3.38341308499654   -1.46683629399711   -1.50386635563176
O         5.73376969877363   -1.67240974909119   -0.80487713562316
C         5.10779242565926    0.35558075681089   -2.34752372964096
C         4.89076930066703   -0.18889917499134   -3.74331147056909
O         6.45521041894670    0.72756286664603   -1.97971893847503
C         4.16197860598896    1.46703809414153   -1.90239139106020
O         3.36268048135532    1.90846094430319   -2.71248587217151
S         1.32990910485059   -0.53036065480776    1.20267119048156
C         0.90488771661796    0.32688148276360    2.70075124129295
O         0.11818127933213   -1.04206761105909    0.59127824360555
O         2.46326101901772   -1.40998887206512    1.44798194765648
H         0.81211466632463    2.19504186449821   -1.28432114829111
H         1.02427063425550    2.73193375109974    0.34764093403740
H        -0.16679117702456    1.51773858813832    0.02052904827064
H         1.91287024160512    0.08127116754155   -0.83299258989173
H         4.68874912539977    2.70891455476015   -0.15492257740397
H         5.10979236944136    0.41278771025726    1.15351931692147
H         4.83419410217968   -1.26538997234105   -3.55149530625718
H         5.71017960267641    0.01314452621581   -4.44344361674024
H         4.00780144080424    0.24280539882153   -4.22388774111422
H         7.06499508477865   -0.01993620190979   -2.16766001270211
H         0.50569787417971    1.31898588347862    2.48647583361657
H         1.80664253369873    0.38365285826007    3.31126081821797
H         0.15918663857187   -0.12030462890580    3.36302502436455
