30
 energy: -57.470814586264 gnorm: 0.146300751953 xtb: 6.4.1 (79825abcba525fcdf90b791dcacef51065a7a4e7)
C         0.09406510344323    0.78313751668204    0.22733749963105
C         1.45956240269206    0.15890353387755   -0.02989913411266
N         2.47141452575127    1.22390149087084    0.01229282055461
C         3.21045872017512    1.86243002544487   -1.04926585300546
C         3.93916366477607    0.98367729793369   -0.04050413835962
S         4.65439357848991   -0.39211365677718   -1.09389154946023
O         3.80107621924894   -1.52584234818949   -1.37936937315181
O         5.96579149828187   -0.71677047938342   -0.56914903212023
C         4.80335701042375    0.67910664365884   -2.54285076227766
C         5.23900669701244   -0.00797632853687   -3.81952894525115
O         5.69419833128017    1.69860747383707   -2.03668270850043
C         3.41335079099459    1.29118591907553   -2.39695458915705
O         2.52473532064969    1.23540986442184   -3.23196136865509
S         2.12515354337329   -0.75784570825732    1.44900838398875
C         1.65242603827444    0.18451282857810    2.88017580729172
O         1.37001431870322   -1.98646070168695    1.60457064165281
O         3.55052996138212   -0.93253596442630    1.21195330686960
H        -0.23435221923723    1.18810541644687   -0.73153516746504
H         0.13421567915229    1.64234749887784    0.90094633146460
H        -0.60919223641987    0.06846360569091    0.66973741928358
H         1.47124468793974   -0.37329545575269   -0.97475065158198
H         3.11991870932228    2.94511377712870   -1.02811124857957
H         4.48575580518435    1.46332924801353    0.76093663996752
H         5.96034901815391   -0.82393877309209   -3.70684719685223
H         5.75007889145598    0.67519432992032   -4.50838523431967
H         4.37520500750853   -0.40050080853877   -4.36425438728778
H         6.54818018064371    1.26994894309945   -1.80672421474041
H         0.68119697474446   -0.21129365595345    3.17948994969354
H         1.68639128909831    1.26441784603806    2.73266920414492
H         2.40604577045871   -0.17211842707071    3.58694559106100
