30
 energy: -57.476302039875 gnorm: 0.122240674003 xtb: 6.4.1 (79825abcba525fcdf90b791dcacef51065a7a4e7)
C         0.68769517893155    1.08061338421362   -0.59918313229939
C         1.73632173432740    0.11783843901763   -0.05708689689230
N         2.96231123168836    0.83203644202959    0.32594933232530
C         3.82166781475504    1.59789276861432   -0.54340779706210
C         4.37508462376375    0.38384416536357    0.19186963393207
S         4.98596283140688   -0.66957095303822   -1.23330551649036
O         4.02532903473518   -1.69028906531241   -1.59428484544317
O         6.37475683968037   -0.92550716274499   -0.90731607508671
C         4.98343670582702    0.63665110803675   -2.48349085549656
C         5.05240865098063    0.21659767601883   -3.93627398952322
O         6.17131861876337    1.37152803324599   -2.11190134004014
C         3.75351186381365    1.40348025167046   -2.00672891509578
O         2.96378439039575    1.86003582918685   -2.81782213717066
S         1.22045562406671   -0.64035621037713    1.56452686865125
C         1.25421593850569    0.70061496090322    2.73089201699422
O        -0.14714503327587   -1.09142143592128    1.39092309087340
O         2.21683767321656   -1.62252531624850    1.96574549806240
H         1.04527124277900    1.60656022717347   -1.48620794122757
H         0.64003387956060    1.84460284195559    0.18033674253690
H        -0.29024955352638    0.59284647600316   -0.68137147491167
H         1.83040403010333   -0.80714715665947   -0.61535811929106
H         4.13412257873386    2.59038377423481   -0.23006634811086
H         5.02395780587134    0.34063092375933    1.05687403543882
H         5.61078053166797   -0.72493762148799   -3.95991203325051
H         5.57805593075091    0.99878764196380   -4.49691087481334
H         4.03885168738649    0.01083062855015   -4.29308883839578
H         6.88593395017339    0.70256935091854   -2.02396242300315
H         0.53457918515059    0.49987487534098    3.52547617492798
H         1.00123064259829    1.60224285887456    2.17216824217101
H         2.25925010053645    0.80720394290051    3.14706169685383
