30
 energy: -57.477687341713 gnorm: 0.136851452714 xtb: 6.4.1 (79825abcba525fcdf90b791dcacef51065a7a4e7)
C         0.86032463913408    2.09726646606231   -0.16527218958284
C         1.92703350220835    1.00983112588849   -0.17144855989193
N         3.20775798289563    1.37290229430382    0.45126318082396
C         4.33113345397547    1.68857926156465   -0.39678578871435
C         4.34694137077861    0.41535005517139    0.43954819698774
S         4.35296884547739   -0.85271151358999   -0.94101810858512
O         3.18889357329808   -1.49266549609932   -1.51580197075356
O         5.42260837688122   -1.76445326258028   -0.58729574118458
C         5.03570916140413    0.24296483510308   -2.20693470805539
C         4.85469697442248   -0.27219624103199   -3.61889239243205
O         6.39017558165688    0.49067885045381   -1.76733854691460
C         4.21668707904192    1.48139593649474   -1.85545890831114
O         3.30765257493264    1.99441301744815   -2.48827360347994
S         1.44904952244502   -0.43821983870993    0.89873268716596
C         1.19475755885238    0.22792630010556    2.52702504997688
O         0.33009844364702   -1.20479347366469    0.38468695711585
O         2.69911669657565   -1.17185633720254    1.03109309131123
H         1.09542947353431    2.78577503617600   -0.97889089707235
H         0.96077179184881    2.69112405602329    0.74623549598800
H        -0.16127859314720    1.75765209360502   -0.37029974053307
H         1.96668936114866    0.55360997245042   -1.15450820358597
H         4.85011582933582    2.58876268976613   -0.07870351441531
H         4.99797092075892    0.13524721442605    1.25737419343510
H         4.02679073723605   -0.98798876286385   -3.58665950674434
H         5.78856130077664   -0.74411712897961   -3.94695948649922
H         4.62403990427462    0.49219181328303   -4.36686488595318
H         6.76126753782024   -0.35998648789119   -1.44396061645203
H         1.92737751984106    1.03353245241442    2.58870440622019
H         1.41923669104907   -0.57566882657682    3.22912951124647
H         0.17104682660152    0.58716010616797    2.65976347577751
