30
 energy: -57.476766610685 gnorm: 0.130229494711 xtb: 6.4.1 (79825abcba525fcdf90b791dcacef51065a7a4e7)
C         0.48527820427737    1.67276784313778   -0.04825951161724
C         1.67518139383553    0.73917195448651   -0.22978291350914
N         2.93943355669803    1.42184881883304    0.07919002793927
C         3.99042784392034    1.86511704886712   -0.80383665570692
C         4.28266039634729    0.80423195982715    0.24970044691811
S         4.56501853809785   -0.67370871037183   -0.86830889903482
O         3.43295629393211   -1.45608686822095   -1.31698287896009
O         5.71351279171645   -1.45504262888354   -0.45478801349429
C         5.07599493474936    0.31364475848761   -2.29421986661188
C         5.09283497068354   -0.33173735175277   -3.66351866177594
O         6.22577850836073    0.96613590445378   -1.70989175763410
C         3.99727419137869    1.38883415557404   -2.20271394628172
O         3.10717636412582    1.61314777156983   -3.00732193142166
S         1.60169179882989   -0.58134151652902    1.08225811375860
C         0.99576823660242    0.18405988211210    2.56777769757418
O         0.79912742224526   -1.71320657528428    0.65952702245246
O         2.98967902913065   -0.89538009922103    1.38767740650739
H         0.49077009683144    2.38024733950736   -0.87936499823024
H         0.56925838858895    2.23537718820082    0.88448952987430
H        -0.46542894315405    1.12764047849099   -0.04197864084922
H         1.66009583470399    0.22775952087628   -1.18599752401329
H         4.28905481241778    2.89921635493749   -0.65447241119567
H         4.91124704949207    0.98986494290990    1.11083659658859
H         4.19225795123831   -0.94950722335597   -3.74192815674266
H         5.95300846398723   -1.00550018682170   -3.75617462021394
H         5.04524910716657    0.45859234791270   -4.41854792247968
H         6.83989636601940    0.34201761906496   -1.26351784867831
H         1.09388749025953   -0.65513007755858    3.25746635677119
H        -0.04596684060800    0.48011222551970    2.44031114493792
H         1.71096567627694    0.90039978278503    2.98009050322251
