30
 energy: -57.469199441066 gnorm: 0.131575467364 xtb: 6.4.1 (79825abcba525fcdf90b791dcacef51065a7a4e7)
C         0.77858169941302    1.26782390185513   -0.55409749709971
C         1.87389364725039    0.30932652321498   -0.10465775586557
N         3.06908995863250    1.02821167776898    0.35854382802313
C         3.97886882260779    1.76573159267746   -0.48358338824433
C         4.47219290402231    0.53943337533125    0.27380758700788
S         4.74282267410739   -0.68900807573822   -1.11603805682684
O         3.56333245521696   -1.50348519147418   -1.31708204520884
O         5.98286691075168   -1.43807297484542   -1.15743033610606
C         4.93982590474393    0.57312652295951   -2.39564417596548
C         4.89477977878898    0.14044018184950   -3.84565597776707
O         6.27619479238727    1.03828826838922   -2.10080684960694
C         3.92180808163333    1.61991388540416   -1.95301574182899
O         3.03231108286499    2.06785045458251   -2.65880084245819
S         1.51669257645156   -0.63803226794966    1.45916029598519
C         0.55519765379357    0.50175711612154    2.42671327818057
O         0.67789829432026   -1.76835165705320    1.10882917007662
O         2.72215607437965   -0.91374297432804    2.22678721712144
H         1.02269988405414    1.66660859827713   -1.54033824513998
H         0.81268035483263    2.14875205104502    0.09119747862092
H        -0.16447060168884    0.71479052009864   -0.47758726056105
H         2.02424063685623   -0.48818870891123   -0.82401985195647
H         4.34311925240819    2.68160643943327   -0.02604201278211
H         5.10118048130219    0.44058234629074    1.14887302587431
H         3.86478555724796   -0.00006013916215   -4.18945562014366
H         5.58538593648222   -0.69657507877357   -4.00348028266206
H         5.19782364022352    0.86214717868002   -4.61002373046577
H         6.81202532408737    0.21963063702525   -2.00807407442149
H         1.09831560582395    1.44096136862483    2.53831921491711
H         0.26246548997289   -0.06878594300902    3.30869694067858
H        -0.31873317260660    0.52887968615308    1.77084640346344
