30
 energy: -57.478134384497 gnorm: 0.128301163926 xtb: 6.4.1 (79825abcba525fcdf90b791dcacef51065a7a4e7)
C         0.68763368028325    1.43916441702321   -0.53823976955351
C         1.80408622474115    0.45849181861905   -0.20322253196175
N         2.99153226399273    1.21507918133408    0.21795824363136
C         4.03088295845094    1.81505337111793   -0.58241203433266
C         4.33460484107717    0.57475724956467    0.24839217095565
S         4.82045133242127   -0.72493945870716   -1.01205277916342
O         3.72195799118198   -1.61299984413115   -1.32772660105437
O         6.10869652452713   -1.27321696728192   -0.63743650647562
C         5.10851919724672    0.45504534443654   -2.35139538207362
C         4.77871850610201   -0.19139970612014   -3.67997400202006
O         6.40905274233965    1.02927222449692   -2.09050787532195
C         4.05081864916632    1.50589857096920   -2.02732587948546
O         3.14393117046366    1.96259887913743   -2.70479516763875
S         1.37486572543559   -0.58592829568452    1.27852122470673
C         0.94541322644709    0.45284192003754    2.65557535979182
O         0.20366391612452   -1.35765038943454    0.90884433966447
O         2.60630997817144   -1.28370551551839    1.61772873167440
H         0.87333685420462    1.84657957144304   -1.53363966751997
H         0.65101545566815    2.20766446236040    0.23743381704297
H        -0.31275502224414    0.99838656490127   -0.46087886560106
H         1.94031317843938   -0.20664128789245   -1.04889194671396
H         4.08840061090803    2.84379930482845   -0.23712555983387
H         4.77240916141571    0.61621750626677    1.23720196029191
H         3.68921239180640   -0.24521956782226   -3.77434815188014
H         5.17569961052242   -1.21288381513993   -3.71760564439521
H         5.13218217927793    0.34933723737237   -4.56293584848465
H         7.01776941816552    0.36590290424930   -1.69640230939116
H         1.70849562987068    1.23070154902122    2.70223654156424
H         1.03793318276693   -0.23743964791433    3.49465705874303
H        -0.07916704226689    0.80635734863656    2.51445769615983
