30
 energy: -57.476602179282 gnorm: 0.126745515998 xtb: 6.4.1 (79825abcba525fcdf90b791dcacef51065a7a4e7)
C         0.55479808191873    1.71959643666760   -0.08843747818971
C         1.75123392841905    0.77962389562028   -0.16202081560626
N         2.98049911246416    1.49620367272314    0.20576454548824
C         3.96402685431013    1.90536436037821   -0.76689805894352
C         4.29365615576541    0.79615368695405    0.22396705889305
S         4.54896224872347   -0.66712358157407   -0.91954422122036
O         3.36064777469567   -1.43341992093347   -1.22887815036852
O         5.70859723233709   -1.37156974134753   -0.41010965377826
C         5.04464278634903    0.40143277293562   -2.29128543523547
C         5.05207551198667   -0.32472060273880   -3.61960274488905
O         6.34302092191993    0.89110557539928   -1.88678442984323
C         3.92205491087875    1.42698244338439   -2.16444556606843
O         2.97594357440363    1.43244547336889   -2.93569665864296
S         1.68741137819530   -0.58892462282188    1.10036178636172
C         0.82532034760476    0.10548057263985    2.49117147075312
O         0.80855870147783   -1.61723354136831    0.57678905340933
O         3.03804026429178   -0.96395161754442    1.49223688465769
H         0.67606279460894    2.52535226925770   -0.81462349922386
H         0.50006834019341    2.11873452459090    0.92709005191316
H        -0.42261647173831    1.23500560605888   -0.19274419516484
H         1.82996764421919    0.26366191995514   -1.11265264282857
H         4.41702643100153    2.88640649143549   -0.65202057742719
H         5.04149706201399    0.73729867603767    1.00397109480793
H         4.16471427499338   -0.92555168188177   -3.84414378919663
H         5.96048478006667   -0.93873113820352   -3.60464991617791
H         5.14490462981542    0.46923638536548   -4.36657643184135
H         6.83390299910906    0.17225201075807   -1.43049682006616
H         1.26719207018444   -0.34335875789613    3.38158163418451
H        -0.18949847936492   -0.22438634859079    2.26658909001904
H         1.01537758708794    1.16961419319546    2.65288097560392
