30
 energy: -57.477647087801 gnorm: 0.122906493916 xtb: 6.4.1 (79825abcba525fcdf90b791dcacef51065a7a4e7)
C         0.95278415801002    1.99288642167748   -0.15067572868786
C         1.93490928314882    0.83063889438968   -0.07973552906880
N         3.22944207561515    1.37572976356617    0.35259139564048
C         4.35598487199354    1.74888116066906   -0.46745178739674
C         4.40813792533713    0.46718401968185    0.35434475044835
S         4.38591439686198   -0.83317053962814   -0.99567892580057
O         3.04615845345768   -1.23487557570235   -1.36807106937835
O         5.46538316532347   -1.73523805588444   -0.64704927845078
C         5.03320391714890    0.23975587078055   -2.29914777142350
C         4.76905247686787   -0.16174957961762   -3.73469583368997
O         6.46130925503062    0.27539075667259   -2.07907595878126
C         4.29812945529739    1.52392579127237   -1.92683453283220
O         3.74674699369892    2.23770202164129   -2.74932195921808
S         1.46227024196107   -0.54302707841532    1.08656730118028
C         0.77470706893306    0.23717419884125    2.52819622419819
O         0.42372319704820   -1.34802914935345    0.47230239920137
O         2.70969310659141   -1.18111924379787    1.48050170531109
H         1.36661078311480    2.76334670537931   -0.80369349909319
H         0.83656610501573    2.45675935444590    0.83162666492970
H        -0.06742204216108    1.66357607745822   -0.37823096437644
H         2.05251863429970    0.28816023219523   -1.01140153091828
H         4.74139589047752    2.74008701908361   -0.24425109594350
H         4.84164902297570    0.16467859497674    1.29864079131224
H         3.84272844201831   -0.74091680451935   -3.80760494630024
H         5.61727185680219   -0.75450653350421   -4.09746711124247
H         4.70990627994200    0.78922457856055   -4.27238023058501
H         6.71858883729429   -0.44119296053359   -1.45760267999556
H         0.83723646441433   -0.57423039846364    3.25431623972340
H        -0.23552875982831    0.61352429301122    2.36421189724401
H         1.38445895797256    1.04968493818368    2.93153356730513
