30
 energy: -57.476750952086 gnorm: 0.130024467786 xtb: 6.4.1 (79825abcba525fcdf90b791dcacef51065a7a4e7)
C         0.43648558691166    1.60342342033713    0.00182679198853
C         1.66150124698987    0.70178051736847   -0.08062520038230
N         2.88985110725426    1.45567935702899    0.20684425500208
C         3.86884064862953    1.94431916115486   -0.73316768979080
C         4.23483758383029    0.81895427027598    0.22621626944250
S         4.51083021018847   -0.62624471935892   -0.93533767596706
O         3.33076081054895   -1.29672639160759   -1.43820882017068
O         5.68426205651510   -1.32260923984248   -0.44681395923186
C         4.95142765439422    0.42239783876940   -2.34082994415256
C         5.09991477523329   -0.25818593745679   -3.68490514354037
O         6.15100906711719    0.98999189695887   -1.76809290192736
C         3.83226068216481    1.43571510069786   -2.12015498872453
O         2.96314523128555    1.71777869444767   -2.92951474020149
S         1.82855894637406   -0.72490295615723    1.10566068014558
C         1.25597871455150    0.11645495503911    2.56306242387048
O         0.73849929586518   -1.63091479151051    0.79769610646768
O         3.17682096963263   -1.25136712134197    1.25874473067278
H         0.35210635800872    2.26542153720659   -0.86184697007288
H         0.45059265494221    2.08515831683692    0.98230382001956
H        -0.39366964439172    0.91272505407922   -0.18478894758803
H         1.64175523692135    0.21241354025530   -1.04822361433484
H         4.11283197139269    3.00111871412735   -0.66614500846272
H         4.91916097859627    0.85641733593561    1.06373298890151
H         6.13513485962570   -0.32137884252412   -4.03583628371578
H         4.49260842908771    0.30107225351921   -4.40660397345975
H         4.71199721108791   -1.27065703589247   -3.53869682801396
H         6.83108160105716    0.28052035991394   -1.75999780527711
H         0.21707632846847    0.43622018884558    2.47378952556362
H         1.91679125314160    0.93818844610377    2.84088888325543
H         1.30432312969958   -0.64728394985026    3.34345833826151
