30
 energy: -57.475098349709 gnorm: 0.121889576246 xtb: 6.4.1 (79825abcba525fcdf90b791dcacef51065a7a4e7)
C         0.41107285040689    1.13168890672068   -0.27542168165943
C         1.70229157056652    0.32856151442256   -0.18507691299297
N         2.86405957297271    1.18347230859712    0.09646960498013
C         3.84687625742262    1.92135542405299   -0.65878620433594
C         4.27194104887983    0.70448245983016    0.15322191782263
S         4.63282238469522   -0.63298909190528   -1.10967724524842
O         3.42930253162885   -1.34557320188870   -1.48217245717532
O         5.87545556595300   -1.32091636972002   -0.82133700848330
C         5.08305401002288    0.64470915864871   -2.30715981483129
C         5.06118698836311   -0.00362406447117   -3.67499266745782
O         6.36371333671363    1.16204405735535   -1.88117555049218
C         3.93047021107769    1.62360938509939   -2.10381543916668
O         3.01997178838606    1.69718301420872   -2.91348465657966
S         1.58546981241546   -0.71090105726370    1.35650617410540
C         1.40651996363639    0.53647202017987    2.61021605175174
O         0.38866624925092   -1.51566609557296    1.20176725997518
O         2.84428634875128   -1.40804183406532    1.57510487990740
H         0.54203337412053    1.71685720057786   -1.18740915003974
H         0.19746535658141    1.75114475543962    0.59879169021545
H        -0.50502595876552    0.53020434167073   -0.28058619275728
H         1.78631636410294   -0.37496020679846   -1.00612113182257
H         4.02352773003423    2.91707766029211   -0.26106681132254
H         4.81561083431268    0.64670621819001    1.08714990088347
H         4.12477613160170   -0.54454679736745   -3.84635175018501
H         5.88773902994983   -0.72421381302343   -3.67642784663149
H         5.16911553377438    0.75523437025536   -4.45565900975577
H         6.92688490005958    0.40084586631343   -1.61787126283718
H         0.42216153837712    0.97721369921713    2.44797275969227
H         2.22369423352793    1.25777449194505    2.57772544161073
H         1.51343317669534    0.07664320624036    3.59600462297425
