30
 energy: -57.478025712508 gnorm: 0.134825528574 xtb: 6.4.1 (79825abcba525fcdf90b791dcacef51065a7a4e7)
C         0.86768919720481    2.07904475963350   -0.17860405480551
C         1.86114031669890    0.92444904380433   -0.19823136988481
N         3.16189073896138    1.35706365966618    0.33161620590099
C         4.31264275311675    1.72047889154618   -0.45864389159964
C         4.31855741787477    0.42064115538486    0.33583981862144
S         4.41153946276166   -0.89469531597107   -0.99653546997731
O         3.15496913136184   -1.40856670385141   -1.49848770810441
O         5.47159956827066   -1.79967188839804   -0.59928083872247
C         5.12591397547339    0.21168395363408   -2.23539777248742
C         4.93727102984774   -0.21751013668810   -3.67483763432750
O         6.47201056971780    0.47352856124309   -1.77861810985674
C         4.30341845542795    1.45556289031927   -1.91242666887013
O         3.61061605589731    1.98036554361332   -2.76950995628101
S         1.38324028930458   -0.39745001666000    1.02438984673991
C         1.06231738776995    0.29179577404418    2.63115673378617
O         0.18034340841221   -1.13531634437236    0.68894679373505
O         2.55325047038546   -1.25704279359637    1.12727892062554
H         1.15116183680765    2.81588467985980   -0.93226440506682
H         0.80098601473229    2.52429543684636    0.81683817901675
H        -0.14221592823413    1.72658322882889   -0.41716197413296
H         1.95059082586114    0.45150048882062   -1.17005177554967
H         4.91749269078738    2.55500782955914   -0.11430813692798
H         4.94296226988192    0.20647113425309    1.19338633133543
H         4.51453188967224    0.43136545810171   -4.44883938717030
H         4.25643549002109   -1.07624503158177   -3.71327292174035
H         5.85062874595857   -0.57634680681376   -4.15854060099938
H         6.89062560281775   -0.29871212996956   -1.33780089960070
H         1.77145279632499   -0.15521463574877    3.32890044671761
H         0.04915484249125    0.05163787266826    2.95508963188918
H         1.21083175804795    1.37329552671700    2.68550604418137
