30
 energy: -57.469332528363 gnorm: 0.123923229622 xtb: 6.4.1 (79825abcba525fcdf90b791dcacef51065a7a4e7)
C         0.80115964823175    0.98548829311617   -0.77244126735784
C         1.97255754393082    0.26293958137517   -0.11962277955195
N         3.10931421446970    1.00811628359873    0.43925239475301
C         3.96911937259485    1.81859148189669   -0.38819965842609
C         4.52932124126218    0.58332196281410    0.30541448502966
S         4.90635265502423   -0.62140686701218   -1.08039046564432
O         3.92900854766400   -1.65367827288351   -1.35279290982351
O         6.26596480615514   -1.10871327166563   -0.95993908552670
C         4.85738636278287    0.63744977319466   -2.37733614572259
C         4.60914851659309   -0.04168526798464   -3.70734908207349
O         6.23779487651831    1.06171525382076   -2.31685941393220
C         3.84177093714958    1.64686132064380   -1.85040383459754
O         3.01456070826561    2.18432414919855   -2.56932086709832
S         1.29647042669086   -0.65896061363715    1.35130021104684
C         1.19833419183732    0.61418114558289    2.58792078295948
O        -0.04612596506043   -1.07613167503943    0.99446285290295
O         2.26009078795025   -1.65558627411487    1.79467682211909
H         0.98314463379225    1.13046974078765   -1.83881623431600
H         0.75078369321032    1.99837642273138   -0.36608844178943
H        -0.12632002792829    0.45127723552501   -0.53696861982388
H         2.36872151658486   -0.44251098622982   -0.84177943096254
H         4.23012667338189    2.79245708615403    0.01715215301313
H         4.99951646749008    0.56538117694036    1.27995583458970
H         5.21190763892896   -0.95572184289537   -3.70062513370924
H         4.87309739729130    0.71222833584454   -4.45860482388020
H         3.61098016345178   -0.48394117057759   -3.63646686454351
H         6.74494269513807    0.30062869426997   -1.95705059937216
H         2.20766773364352    1.01882369219929    2.67187216082365
H         0.94471830306357    0.24749324083910    3.58307184920788
H         0.43768589477715    1.36565932447655    2.36132246991947
