30
 energy: -57.478763172130 gnorm: 0.131723841175 xtb: 6.4.1 (79825abcba525fcdf90b791dcacef51065a7a4e7)
C         0.56356485440775    1.49520802727450   -0.28132119714921
C         1.71719858777428    0.50548504217545   -0.18132496499559
N         2.93859249171621    1.21477985647287    0.22480719072215
C         3.97058958105289    1.82457831449397   -0.57765133201113
C         4.29944626837932    0.61586936655265    0.28935121431101
S         4.48553415955655   -0.71917043218856   -1.01334586628213
O         3.31930319466636   -1.48045086318220   -1.40748580080345
O         5.66793914774887   -1.51226111652012   -0.74233502719330
C         4.93489058837928    0.47047093959419   -2.29865440616142
C         4.97237434683698   -0.09983290881727   -3.70048511412948
O         6.27093258694171    0.87071301447713   -1.91920169494765
C         4.02905471462083    1.67207301486524   -2.04634935600829
O         3.41327505413970    2.24723806844561   -2.92951713728192
S         1.59631937475814   -0.68256587757783    1.24854615595255
C         1.16727567935408    0.42088199152099    2.57447051533524
O         0.58722694516482   -1.67070030043611    0.91801250090025
O         2.93021000294944   -1.19585431340234    1.52364704906400
H         0.72260651608958    2.23444258244104   -1.06842458950775
H         0.46780994141542    1.94001355158867    0.71194702686144
H        -0.40861741133579    1.02154281624970   -0.45894519224729
H         1.92685881061672   -0.05654949297898   -1.08480512403743
H         4.36377060269864    2.77671315484963   -0.23167870773383
H         4.75543241994790    0.61291655387613    1.27078087325788
H         6.02616626400199   -0.30670279604531   -3.91391912305471
H         4.56449529305675    0.59973348515766   -4.43986421923036
H         4.43409081055758   -1.05210257045047   -3.68078843397667
H         6.86845086921432    0.12431580834713   -1.69165575035159
H         0.14918489749976    0.80254868955365    2.48868406853314
H         1.91923763725592    1.20856466251447    2.51776155038760
H         1.27826324780460   -0.17648320245416    3.48303458308046
