30
 energy: -57.468804755755 gnorm: 0.131321800959 xtb: 6.4.1 (79825abcba525fcdf90b791dcacef51065a7a4e7)
C         0.64550896296073    0.96006849896234   -0.78379544164186
C         1.82465267282338    0.19617850780326   -0.19514118827280
N         2.95550060869440    0.95926263985139    0.35142178503763
C         3.89467871311101    1.70994565017959   -0.44559223446063
C         4.36042109785316    0.47032722959521    0.30756623437447
S         4.80463020811926   -0.67657809732449   -1.10709488034590
O         3.66014159727179   -1.47844088957289   -1.48412369444917
O         6.09995852536283   -1.25896081220457   -0.81817241797834
C         5.01334570192589    0.60588029470398   -2.36444294423262
C         4.60647861726388    0.09860354069463   -3.73152389061966
O         6.36630217410709    1.11204219591846   -2.31449084062120
C         4.06873455088737    1.71583271381202   -1.91304574976984
O         3.47767102342162    2.46919152044439   -2.67006567640716
S         1.42280808603259   -0.65654445184418    1.41171682200465
C         1.02818081752774    0.64678926096106    2.55423231503293
O         0.22921057362616   -1.46284973490882    1.24105213379324
O         2.54859883450037   -1.36317129480405    2.00474584662845
H         0.88642950690797    1.09420918563240   -1.83985287197050
H         0.53394083102549    1.94935021554681   -0.33382104688695
H        -0.19413646522282    0.29782716954649   -0.54404692322976
H         2.07748127980634   -0.64546303974294   -0.83062040413079
H         4.10262570425984    2.69872741760757   -0.04569501524248
H         4.94065983660000    0.29414143928394    1.20390200403891
H         5.24506442503327   -0.76643468413966   -3.93826930645206
H         4.86640671952152    0.81607847741516   -4.51899263296658
H         3.57376361529142   -0.26231544857118   -3.71767321441156
H         6.93074360123967    0.36905076480045   -2.00581033805282
H         0.87447369947151    0.04338237216422    3.44967180003372
H         0.17824629396196    1.19504097410056    2.14663196218931
H         1.69160405669735    1.45835162954859    2.86389052662904
