30
 energy: -57.473661796471 gnorm: 0.136470245754 xtb: 6.4.1 (79825abcba525fcdf90b791dcacef51065a7a4e7)
C         0.33052641048625    0.92446062070495   -0.39954725487370
C         1.64773087686044    0.19981845287345   -0.15401161056772
N         2.69686791450698    1.18994905215601    0.12669888333421
C         3.61271569884766    1.84115913744760   -0.77771259310182
C         4.12963901268291    0.79445040238872    0.20106654462706
S         4.66897428150492   -0.49382824310373   -1.04930749150200
O         3.64939792784331   -1.47430611042038   -1.35609089548877
O         5.95950314353306   -1.11870344667235   -0.83814995573765
C         4.86506664375033    0.65959926503990   -2.42783518702714
C         5.21582681368586    0.02453772633649   -3.75653567633592
O         5.93169806238111    1.52868094078864   -1.98491221610467
C         3.54524709672200    1.38447326061589   -2.18150600095814
O         2.57100696356848    1.47043982671254   -2.91188307166562
S         1.79888070046405   -0.73336331185987    1.45127145219800
C         1.51127564756821    0.39125917964041    2.79747302875565
O         0.74866365708297   -1.73259619677406    1.40119680611102
O         3.20656186312449   -1.09892879267692    1.50788727776766
H         0.40707069063885    1.34444466006817   -1.40406112161683
H         0.23750044056653    1.75305892616321    0.30640864887337
H        -0.41146827631986    0.11860849167698   -0.43261696664206
H         1.87615476740320   -0.51813766658887   -0.93406172091915
H         3.77690519496257    2.90368529493942   -0.61982313752135
H         4.87169091406906    1.04531045409189    0.94776892397708
H         4.31127670517826   -0.41563439627055   -4.18881363651708
H         6.05206910644175   -0.65780849869320   -3.56277711491798
H         5.44034372451764    0.87584854809970   -4.40600982872860
H         6.76721475320093    1.01116326504723   -1.98607776655766
H         2.38704080101356    0.34552567337876    3.44591845074122
H         0.62416660644988    0.02180882617589    3.31288613343125
H         1.35940177015077    1.38204973312855    2.36167435395738
