30
 energy: -57.475796681565 gnorm: 0.129562031956 xtb: 6.4.1 (79825abcba525fcdf90b791dcacef51065a7a4e7)
C         1.11178702600525    2.10472746335504   -0.35704034929729
C         2.05793015036686    0.92673740703205   -0.16319958460184
N         3.31744825640264    1.25364342926586    0.51987591545157
C         4.46771918424035    1.57909985608469   -0.28744480706506
C         4.41646804091552    0.25203249646469    0.45893513884097
S         4.38534777933379   -0.96479842371830   -0.96666426506685
O         3.09772914494271   -1.51385452418196   -1.33485511190376
O         5.52260024265856   -1.83434345078636   -0.74067854554417
C         4.96357079052934    0.15095948443810   -2.26663667969369
C         4.55570411458710   -0.22979259475094   -3.67392253198135
O         6.34103904898366    0.32021668241760   -1.86275612931210
C         4.44903061335205    1.49609352545964   -1.76274497973404
O         4.01069889032651    2.36906598247272   -2.49470751039874
S         1.40487745938257   -0.39776074219464    0.97250945886291
C         0.59666159515438    0.52330573381718    2.26021080721244
O         0.47605878320714   -1.25710961582500    0.26346429367868
O         2.48118871588842   -1.09268209581826    1.66319615984359
H         1.29020290629563    2.63848003529621   -1.29222465905430
H         1.04917465941545    2.77444488684952    0.50386672150936
H         0.15314415174550    1.60237597444500   -0.52936039116847
H         2.22623344874972    0.48573203471916   -1.13957291974350
H         5.11352560103519    2.37277349397345    0.07843132329918
H         5.02087874061578    0.13591552114451    1.34907042389075
H         4.74752409179226    0.57522000027890   -4.39085101516265
H         3.47125111081714   -0.33067973551598   -3.54655145720110
H         5.04418146233447   -1.12724101565964   -4.06498626898447
H         6.72664813900517   -0.52764948364707   -1.54915983162552
H        -0.42331274765011    0.88725167227963    2.13085348461222
H         1.22715079755443    1.35543723955666    2.57508730026514
H         0.57449778951058   -0.18873658645441    3.08915988912241
