30
 energy: -57.482354665088 gnorm: 0.124018562175 xtb: 6.4.1 (79825abcba525fcdf90b791dcacef51065a7a4e7)
C         0.61955858330426    1.57567842300847   -0.29411743670982
C         1.76807386890655    0.59360089852260   -0.10213305335542
N         3.00918424551917    1.24261155622169    0.34314858630908
C         3.96582499384389    1.78677729894277   -0.58933945708656
C         4.35553268832336    0.61019795933578    0.29644067107252
S         4.60963714043409   -0.70123283963712   -1.01868663609505
O         3.40018637045437   -1.37896670577654   -1.43449246448522
O         5.79753292902976   -1.44358439453921   -0.64674708706715
C         5.00696171452300    0.46469999212797   -2.34228765342114
C         4.95132207644686   -0.10980849543835   -3.74179652212539
O         6.29857308204626    0.92866995116120   -1.88879206087781
C         3.94799087441005    1.52160535438598   -2.04299543690867
O         3.12331333709366    1.99323604942520   -2.80945235176397
S         1.56755743473534   -0.69799603973433    1.22533773786226
C         1.12528624730287    0.36560788645156    2.57918188851132
O         0.41978899967466   -1.54400549164799    0.95920751971788
O         2.88237602304984   -1.30079968735702    1.38747832543238
H         0.92686040794205    2.28046643307734   -1.06880006739409
H         0.39974163747396    2.17719398800130    0.59101659582198
H        -0.35452177234675    1.10248381946176   -0.46234852963126
H         1.91991322570887    0.17001620303578   -1.08886373699782
H         4.34582123675417    2.77046163043733   -0.32700928128905
H         4.95684403739110    0.51618449526390    1.19127158858885
H         5.81133822615533   -0.76339887004609   -3.92073359378401
H         4.90646759176903    0.69342253531571   -4.48694611087193
H         4.06213657266727   -0.74649028102912   -3.77245719556945
H         6.87121773419668    0.13541255718934   -1.79533162452302
H         0.03627366342947    0.32477008873402    2.53534709237719
H         1.50011138966186    1.36928007693265    2.37606879260724
H         1.48380846197190   -0.11248654394391    3.49435379461964
