30
 energy: -57.473752555344 gnorm: 0.139260455713 xtb: 6.4.1 (79825abcba525fcdf90b791dcacef51065a7a4e7)
C         1.39021875360893    2.24533506910423   -0.05181807605368
C         2.07608312632997    0.88524728612271   -0.03867027509844
N         3.41828192706948    1.10040454567425    0.51994902569401
C         4.55404869904755    1.46918426790825   -0.28927702423332
C         4.49898919010379    0.09041608043214    0.35631090813088
S         4.44273900502889   -1.00346591438230   -1.16495103589954
O         3.13690309790745   -1.49408826833735   -1.55104832784018
O         5.38015834722849   -2.04549544810550   -0.79624968620881
C         5.10006075337050    0.20243468475525   -2.34092624838734
C         4.94674319049387   -0.10696629359718   -3.81488201781313
O         6.48972300426047    0.18147613668823   -1.94395537927004
C         4.37045927036537    1.40724241678274   -1.75427132330412
O         3.65110895521645    2.10183648201989   -2.45431339174205
S         1.21455370837341   -0.31215576881105    1.09913513447699
C         0.49831152563746    0.72192671007824    2.35508961748789
O         0.05587172174997   -0.83770774523896    0.40258589570749
O         2.20465523917153   -1.19703849093990    1.69503047478599
H         1.93266633007044    2.98304788686104   -0.64580810943815
H         1.39207926243403    2.61620488515666    0.97582721521434
H         0.35499881391831    2.28358097943108   -0.40945519327935
H         2.21508342908599    0.46075714610263   -1.02690285845594
H         5.26340851984232    2.20948108115539    0.07074870898048
H         5.12465209922085   -0.17379657020862    1.19885111907780
H         4.33745699851512    0.61647313706414   -4.36645463926740
H         4.35703550661566   -1.02517713749876   -3.92246276062441
H         5.94283129700080   -0.27272473132356   -4.23593695119647
H         6.70724713964440   -0.74952797241189   -1.71629632950911
H        -0.00967301240014    0.06709910239832    3.06409606036558
H        -0.32846712522297    1.24130885531056    1.86951168088016
H         1.23741558957159    1.35085918087535    2.85790291294462
