30
 energy: -57.466259386719 gnorm: 0.144596031408 xtb: 6.4.1 (79825abcba525fcdf90b791dcacef51065a7a4e7)
C         0.87245904601796    1.34189511512372   -0.42809839890854
C         1.90978150810222    0.30762162070418   -0.01017247526733
N         3.17132836477148    0.92753662837337    0.41883851665341
C         4.08956839093662    1.66856796278679   -0.41093232151025
C         4.52816970371483    0.35098136285629    0.21549557554236
S         4.88108373530686   -0.73244496754740   -1.27299986597174
O         3.81371847024050   -1.63708344451558   -1.64360675486547
O         6.14862282185331   -1.38176139695273   -1.00419863023857
C         5.02668934131231    0.60541553756754   -2.48052382674390
C         4.76946267275521    0.16390774347580   -3.90554528327669
O         6.28388539401534    1.22652415418812   -2.12999783431413
C         3.97139289143757    1.52757565925532   -1.87718798638703
O         2.97174809150348    1.78051670127241   -2.53042289817426
S         1.28815638920761   -0.59220815988806    1.49797101352685
C         0.66234852331027    0.65256803932734    2.60189484558613
O         0.14828382735777   -1.38102921121088    1.07090947525903
O         2.45545542824251   -1.22297908276573    2.09626084590066
H         1.32976559404454    1.64190133408827   -1.37264099733680
H         0.83741835583629    2.27559616113935    0.13809699680870
H        -0.07721789983166    0.88793836059734   -0.73319565703134
H         2.03603254606206   -0.39130239118681   -0.82973487771368
H         4.40150758511559    2.57906164586336    0.09359153829092
H         5.23467165308995    0.12404699217926    1.00320873530211
H         5.40951480280128   -0.69988620042938   -4.11295773397041
H         5.00952256182860    0.95034767962170   -4.63102677857234
H         3.70288528089619   -0.07958744464406   -3.89674791041825
H         6.86961882977258    0.43932856550283   -2.18615378903441
H         1.13666201319925    0.42303434812871    3.55681820425266
H        -0.42280833800551    0.67586557141234    2.49702113816232
H         1.02643685148305    1.64790346198105    2.33468862107518
