30
 energy: -57.470664714293 gnorm: 0.143305140935 xtb: 6.4.1 (79825abcba525fcdf90b791dcacef51065a7a4e7)
C         0.27783220877252    1.20198550813907   -0.09802255334431
C         1.67336378840973    0.60841262636566   -0.24149526116228
N         2.74836385357625    1.56061425215157    0.07080696950791
C         3.73283285142732    1.98595647825113   -0.89392938925026
C         4.09574857897374    0.93312720607344    0.14561847168558
S         4.34354516915702   -0.60351983748866   -0.89903099667693
O         3.12107088189627   -1.19193741260710   -1.40332278310874
O         5.34323824873313   -1.52786126376351   -0.40231384726299
C         4.98843690786631    0.41559882107988   -2.24613813630913
C         5.23941901103494   -0.24655950553739   -3.58417220961652
O         6.14271939176782    1.03765584073456   -1.63797424935131
C         3.83927529647925    1.41929234485038   -2.25455863217035
O         3.22584499308411    1.75992638593988   -3.25338614501847
S         1.90673452209571   -0.64016359491572    1.12129734950709
C         1.69401148336361    0.13920196115062    2.70467643837770
O         0.88407842859130   -1.64884654816228    0.91964695571118
O         3.27394600733602   -1.13374764293900    1.19557568435092
H         0.02949407926781    1.76174334517435   -1.00151194001844
H         0.22939917337554    1.91123354941573    0.73157022924110
H        -0.43666499302108    0.40271213041254    0.12936081661070
H         1.82270732787731    0.24977103129218   -1.25401159022739
H         4.05411133208681    3.02403564387622   -0.89851644490821
H         4.71432474754365    1.01058295069470    1.03020907868015
H         6.02091058740722   -1.01221959546128   -3.62732511996401
H         5.27109203956403    0.50881792391101   -4.37842763533961
H         4.27794288354108   -0.76833789687842   -3.56787498314963
H         6.51424184694247    0.38290380487800   -1.00616345443781
H         1.57599733106564   -0.57908860242766    3.51687650540288
H         0.86440872727377    0.84689483845777    2.71073790309028
H         2.57842111802442    0.71026386450641    2.99854712593194
