30
 energy: -57.470176005109 gnorm: 0.129871238250 xtb: 6.4.1 (79825abcba525fcdf90b791dcacef51065a7a4e7)
C         0.30004021164610    1.10663245509105   -0.57161496130268
C         1.63444885927290    0.40537774126741   -0.35248708339705
N         2.73244655827979    1.26092455862334    0.11898530993875
C         3.80896761556893    1.84979662577328   -0.63939715147110
C         4.08343348190751    0.65361300730265    0.26317181336869
S         4.46530898788475   -0.70642956237412   -0.96907610757728
O         3.37375004476352   -1.42875699912844   -1.58691993584956
O         5.68769314685661   -1.32146545511483   -0.49155220016842
C         5.04507818142093    0.46820966345303   -2.21538112968032
C         5.15576201417423   -0.14623948119811   -3.59450483058870
O         6.24649011786870    1.02061299183344   -1.63173207222451
C         4.01792632613029    1.58817660648913   -2.07871682628954
O         3.49089602283970    2.06368861671312   -3.07174862539832
S         1.65173298393688   -0.55657024001121    1.24280772229199
C         1.63636729789181    0.47272720511115    2.69196670799282
O         0.43080361349783   -1.33933402289990    1.26608861294495
O         2.93070055573399   -1.25115017137326    1.25731282165624
H         0.29181213819176    1.67839376215020   -1.50130040960590
H         0.12921432608905    1.86824219599755    0.19282721379209
H        -0.45544537270406    0.31278006379683   -0.58095768090475
H         1.91616703273081   -0.38909773417365   -1.03480681926584
H         3.86550825957843    2.89399937007241   -0.34394341787443
H         4.48445626128592    0.48567054594439    1.25418759961788
H         4.19653161275726   -0.64438210670647   -3.76931213252760
H         5.90559435221993   -0.93184668676037   -3.44280543536129
H         5.43609531726924    0.54005240438019   -4.39909871590117
H         6.93011213810153    0.32161632116444   -1.53183897085159
H         0.59541558426578    0.61021546639981    2.98701607781592
H         2.01087345552974    1.46041490728803    2.42118114029852
H         2.23244079257797   -0.16971878478026    3.34512183462898
