30
 energy: -57.471801549779 gnorm: 0.127951437998 xtb: 6.4.1 (79825abcba525fcdf90b791dcacef51065a7a4e7)
C         0.35867691472066    0.55247143318672   -0.24127633874012
C         1.78606575714152    0.06320625126197   -0.03246469548861
N         2.70998735764955    1.18039342822693    0.20858968429033
C         3.39183944561831    1.84635213843314   -0.87417925275788
C         4.18450435828956    1.00180180439876    0.11538355115136
S         4.85665814517720   -0.28335981192061   -1.07228160690908
O         4.09672194713802   -1.48544888274278   -1.34147984343053
O         6.27754732696035   -0.43112412850715   -0.82782116954294
C         4.73576468022881    0.71518134804407   -2.57477492196627
C         4.66354394335663   -0.16541324179512   -3.80405039054768
O         5.75466071936607    1.74031496033711   -2.58653235102213
C         3.36858096934542    1.31020239445123   -2.25104250743346
O         2.48831883912154    1.51174446169534   -3.07232451218956
S         1.94852761032348   -0.84368410507350    1.58672158882467
C         1.25735424159296    0.22243400508855    2.82987188076556
O         1.09540971464547   -2.00763704978936    1.44066315916524
O         3.36081781049120   -0.93043387322377    1.92777964237213
H         0.22334590218915    0.70135885944832   -1.31403529585304
H         0.14115448146196    1.46646778360871    0.31630538878414
H        -0.36993310306627   -0.22056250803336    0.02815517611741
H         2.07712662453906   -0.66397489682352   -0.78253654851133
H         3.43413713081963    2.93199650169009   -0.85329071361624
H         4.86965074522842    1.59545006936218    0.70639322227173
H         4.50088770625863    0.39060594377342   -4.73314255236999
H         3.91003569891544   -0.95617268379101   -3.70727873250538
H         5.60657159476500   -0.71657782106011   -3.74183231919357
H         6.54534082355253    1.37747322500971   -2.12927433635435
H         0.46759710601781    0.84494879472572    2.40762002880713
H         2.03942224433003    0.79152918493173    3.33346596181664
H         0.81562855968616   -0.37078282784072    3.63462295511737
