30
 energy: -57.473992366140 gnorm: 0.133316734417 xtb: 6.4.1 (79825abcba525fcdf90b791dcacef51065a7a4e7)
C         0.28492194133612    1.36232573441001   -0.26008768914673
C         1.60698158543012    0.60626066950531   -0.29083733612332
N         2.71620319946300    1.48494015148399    0.10589345146160
C         3.77471961922834    2.03458101664117   -0.70543245785905
C         4.05219883664526    0.83489241866728    0.19154581026112
S         4.51218496503670   -0.59965723748807   -0.92400770447916
O         3.43249440262557   -1.38626654774693   -1.48123560526205
O         5.70078707588760   -1.26208526222822   -0.42507343802563
C         5.01958380029036    0.50794486961323   -2.26002785069961
C         5.10239433593700   -0.29859007888971   -3.53847403082883
O         6.24571724039231    0.98735626373847   -1.66341423882275
C         3.93142421490632    1.56513432707810   -2.09784526932763
O         3.03581489150781    1.81569151069235   -2.88847146297445
S         1.75168336364445   -0.66587692510525    1.06243112523998
C         1.70887978042716    0.09663136472855    2.66757911223810
O         0.59789742290507   -1.53955464331694    0.96550376059841
O         3.07077301726424   -1.27978894561440    1.02338955002162
H         0.10740966040475    1.99946163315637   -1.12832784255063
H         0.26487773165859    1.99428628670659    0.63088190151418
H        -0.43868846939679    0.54673341889002   -0.14943271079447
H         1.79658740702133    0.12565331254637   -1.24434812719091
H         3.96386725544149    3.05005635591931   -0.36796818278926
H         4.47489577510295    0.85846543962577    1.18749153225028
H         5.95694445200594    0.04754256471590   -4.12903556316915
H         4.10335893800792   -0.35614286297386   -3.98686657546285
H         5.19921246160364   -1.35142798301043   -3.25720328658598
H         6.84531612441716    0.22080776148861   -1.52630619410031
H         2.35314718196926    0.97411025161626    2.60058701324461
H         1.98702935560409   -0.62850694730963    3.43302925777991
H         0.71539327722544    0.49060213961364    2.89654128611843
