30
 energy: -57.475768331016 gnorm: 0.129102184984 xtb: 6.4.1 (79825abcba525fcdf90b791dcacef51065a7a4e7)
C         0.40124831547636    1.43406788436502   -0.02895260870955
C         1.67723117759047    0.61288080276665   -0.16289715548466
N         2.88968112465096    1.36346547884992    0.19267742479254
C         3.84850303065654    1.93237702206048   -0.72264331429278
C         4.25992463514368    0.78277877331089    0.18838555803154
S         4.78812105167621   -0.59770814772679   -0.96454288361703
O         3.66964400882648   -1.48603385112792   -1.19879786722912
O         6.05351225174593   -1.15393401886791   -0.52874572785139
C         5.00189720723711    0.53050415483379   -2.36118979370612
C         4.90182496117160   -0.28460598751637   -3.63294521296783
O         6.21288038362039    1.26962417705605   -2.08477047520190
C         3.83636675126065    1.48813068167378   -2.13198636913597
O         2.97834894034439    1.67839476789457   -2.97909307113156
S         1.54943327052287   -0.70124308362123    1.15139136625202
C         1.36840420735419    0.03431028071684    2.75947744089334
O         0.29932314359702   -1.35653544020417    0.81710666152021
O         2.81998233688587   -1.41088180295910    1.17436275484204
H         0.32915227905697    2.18686877383395   -0.81596386017987
H         0.52887891892811    1.99014726930266    0.90276025955683
H        -0.43221580964521    0.72253146346213   -0.01891027764729
H         1.78183335726961    0.02395004602946   -1.06751617946288
H         4.14896136285352    2.96955564087722   -0.60084675015007
H         4.76293021975517    1.03780985502381    1.11200930180273
H         4.03340937699951   -0.95006417371785   -3.67591504896796
H         5.72748494054907   -1.00338955634410   -3.56910398202308
H         5.09914018222750    0.36548411859924   -4.49050231931195
H         6.95950001489232    0.63211863507635   -2.03938486064711
H         0.38639592556273    0.50851352713009    2.74134904484150
H         2.24065189894159    0.64707473282458    2.98928251943942
H         1.32185804537095   -0.75012166982161    3.51918268020372
