37
 energy: -49.855496960989 gnorm: 0.316306445026 xtb: 6.4.1 (79825abcba525fcdf90b791dcacef51065a7a4e7)
C         2.84218208649845   -1.48506471405503    0.20878023802503
C         2.99059062371485    0.01008390622670    0.43360636366306
C         3.16535015238445    0.96737594873784   -0.81816026726202
C         1.72022778479853    0.75415560113175   -1.76380108544261
C         1.03172975716751    1.97773653613234   -2.34610809242049
O         1.73454935324519    2.59342647393257   -3.35319914682719
C         3.05991840936673    2.93781011996994   -3.03494402675250
C         3.26955340478262    3.48001769050441   -1.60782335194386
C         3.25709678715651    2.43035484306426   -0.40437133017443
C         2.13823051059476    2.87512152125412    0.52337687983812
C         1.43504845454601    3.60745914747432    1.34145518965877
C         4.50920250809582    2.62001303375144    0.43626710063762
C         5.61892322743827    2.51172307229647    1.11215874667536
C         4.05922882767881    1.83675946422854   -3.48875508269776
N         4.76458046281768    2.30629105147888   -4.78539250415646
C         5.04257866876641    1.37535859768113   -2.44005419572286
N         4.42862862802357    0.51215539959608   -1.44243460761195
H         3.72085853104476   -1.86158367388797   -0.31088987419327
H         1.95668950845693   -1.68306504484006   -0.40853715310352
H         2.78911680463942   -1.99151229951658    1.18243866236519
H         3.82790043109121    0.11631108303653    1.13186232351918
H         2.06961739522877    0.35781009629956    0.91513147085532
H         1.00512871014307    0.17642654408857   -1.18367431715011
H         2.09277689094215    0.09405352203845   -2.60489412466942
H         0.78261848998649    2.65244570534021   -1.50566715469670
H         0.08431339146432    1.64520957757568   -2.81166133577552
H         3.25114031569879    3.81609984696432   -3.65740024993903
H         2.50129563433172    4.29752904436919   -1.48246009860056
H         4.26099266004640    4.07167590979404   -1.58318477241397
H         0.50634244098140    3.93683527633629    1.74866373704256
H         6.56462180391324    2.68819864021328    1.57694380026574
H         3.46212932611762    0.96760533692371   -3.77492401530578
H         5.69502265142842    2.66150451379199   -4.56433508009123
H         4.90509680483244    1.42876055650417   -5.29181268415368
H         5.42840678751475    2.25633518002466   -1.89310510031713
H         5.97453484884103    0.91829038611809   -2.80031237384130
H         4.26654287455736   -0.41899808249829   -1.88085728107904
