37
 energy: -49.752116924147 gnorm: 0.319428981227 xtb: 6.4.1 (79825abcba525fcdf90b791dcacef51065a7a4e7)
C         2.27719167873806   -1.41283009964576    0.01102953153871
C         2.50310883970377    0.01036989557162    0.49217865750060
C         2.81233943312326    0.92503310572742   -0.76545256280910
C         1.18894498695147    1.19629478907735   -1.33032925883171
C         1.03281638557628    1.74365479967737   -2.73968448176880
O         2.06169378724462    2.26467150494422   -3.48615266409708
C         3.15059455039581    2.91300665546454   -2.87750974207253
C         2.91288461222064    3.35376572760847   -1.44693221436213
C         3.36530446332769    2.29118141608228   -0.34399300807378
C         2.85701838985503    2.91920859536129    0.94349406431423
C         2.95262541497781    3.27468308945138    2.19430689804227
C         4.87859103129511    2.34829539380694   -0.21317325170375
C         5.86568815797015    3.12217787626056   -0.56923712072637
C         4.41414173266384    1.91611645673244   -3.31075270354594
N         5.57796195845167    2.83612384925047   -3.75612706114010
C         4.77582990268755    0.69237992031826   -2.50372620632802
N         3.61520963249997    0.20039555218969   -1.77694480121945
H         2.28081354726172   -1.47390342793935   -1.07531883598733
H         1.34450821304962   -1.75847278270094    0.47472629118239
H         3.17375929207792   -2.03106290838538    0.15687367943343
H         3.38217799048222    0.08462381794191    1.14152994270148
H         1.84692899192673    0.74653888590804    0.97014815574638
H         0.78348293308583    1.73264385461269   -0.47615432922301
H         0.74982796161840    0.15388785282079   -1.28003909257167
H         0.25902916096890    2.53048697709355   -2.66366932709350
H         0.69690860297669    0.96288025410146   -3.44853484150910
H         3.09015706627427    3.92136627498845   -3.29580222233160
H         1.87182150481250    3.71434408594213   -1.20110378321578
H         3.43514063301389    4.35461427847772   -1.20368515063600
H         2.27692255587208    3.74813078041693    2.86964030289610
H         6.76720859153181    3.40279145076180   -0.06920554694366
H         4.10173911883237    1.61006974142823   -4.31204655749467
H         6.33057762921661    2.45254927928854   -4.32814616481978
H         5.21818553808189    3.73111248242274   -4.09645379151872
H         5.54585590356970    1.05159168325054   -1.79509142800779
H         5.12309245060266   -0.03964863168588   -3.24587345730743
H         3.01468181930747   -0.39493486866847   -2.38561636070141
