37
 energy: -49.857862295583 gnorm: 0.330258441710 xtb: 6.4.1 (79825abcba525fcdf90b791dcacef51065a7a4e7)
C         2.53763653925869   -1.20747784332014    0.47504319752362
C         2.72301441317398    0.28884149083514    0.66133536501701
C         2.96185192415545    0.98827855525681   -0.74138095780755
C         1.48736142224665    0.84332725220668   -1.65403916922500
C         1.09566753827209    2.11731574133429   -2.38464885987867
O         1.85073947522443    2.48865009984501   -3.47057659245900
C         3.21490525241330    2.75057271585989   -3.25392519584304
C         3.49827915070743    3.39203059445446   -1.79517385933288
C         3.35807125367412    2.45579314903876   -0.50907696796145
C         2.38252888787722    3.10578085698508    0.45851225407234
C         1.48757821714239    3.68560440910564    1.20878119926730
C         4.64706576521057    2.46462843623101    0.29642106497672
C         5.73871104541558    2.70065381164226    0.96920550018596
C         4.16549263185578    1.63058966450011   -3.61054487808201
N         5.36398099066426    2.20786114608060   -4.40403888168080
C         4.84464753325880    0.97335679278827   -2.43307522143838
N         4.05100282485036    0.26705599191246   -1.43880840012485
H         3.42412924864732   -1.69175175466741    0.07068530916155
H         1.68945252371561   -1.50666780581994   -0.15380594202211
H         2.35770890519141   -1.65907059718056    1.46043948301064
H         3.60256501445762    0.47514570363387    1.28712669785855
H         1.87710427803891    0.77345265056392    1.16189473904331
H         0.71652818857817    0.50961941113441   -0.96401031471604
H         1.73163594607954    0.03591425541604   -2.40927376966191
H         0.95315361978814    2.92040333986607   -1.63740730020717
H         0.11640185167217    1.91293576400411   -2.85812463602487
H         3.42845001278897    3.57283510584646   -3.94217922534638
H         2.79914119705469    4.26342340633717   -1.63349067463037
H         4.48971159473619    3.98390582385181   -1.81424540920889
H         0.81902561263065    4.19826357974109    1.86224906065118
H         6.57530730427133    2.70235317535470    1.63374926541526
H         3.64943786039765    0.93117578549793   -4.27263027174869
H         5.97291567282753    1.45437298504310   -4.72375719353280
H         5.07120469415494    2.65823019123512   -5.27450759109385
H         5.39884130944512    1.68914616708251   -1.79695320564941
H         5.57701513036757    0.23231528396807   -2.78198038261685
H         3.64523091337258   -0.57600413776053   -1.89720976683104
