37
 energy: -49.851555058726 gnorm: 0.318229245945 xtb: 6.4.1 (79825abcba525fcdf90b791dcacef51065a7a4e7)
C         2.90574422265545   -1.52306495241511    0.23100661789209
C         3.01154993629878   -0.01756453585964    0.40511843307242
C         2.88905459319315    0.87474153278896   -0.89973919007189
C         1.19301650854286    0.95780564898618   -1.28004603875428
C         0.97521906002728    1.84993305485601   -2.49121665111046
O         2.05239600045625    1.84838574568763   -3.34382988168638
C         3.11292154911694    2.73948031765432   -3.10356840638266
C         3.25909781005061    3.33774861362844   -1.71622424648006
C         3.22515230214908    2.35081233138750   -0.46121487991742
C         2.19523387478354    2.90706417744388    0.50844886456102
C         1.43964028359727    3.72435058301887    1.18753412063859
C         4.53745084313984    2.56030609265190    0.27661766906397
C         5.70409228602592    2.84966399645207    0.78184636650295
C         4.39182284999789    1.95550222221232   -3.58867385703372
N         5.48509804593661    2.97021013000108   -4.00624618749266
C         4.85213633744171    1.01338477678725   -2.50231874368951
N         3.76734122834594    0.24423699762034   -1.91161533127690
H         2.22960846083270   -1.80498639908104   -0.57351595876557
H         2.49657908662123   -1.96096348095697    1.15036006913894
H         3.92450574845681   -1.89717850876520    0.05930976653124
H         3.98193054661260    0.18933887559074    0.86932287250410
H         2.26161248168919    0.38980837658810    1.09258679169367
H         0.62999766126520    1.31984945158660   -0.42353060987539
H         0.84958075984382   -0.09376025837435   -1.52134693181864
H         0.79545866768878    2.86762638900625   -2.09673428736767
H         0.08618314633176    1.55487911802847   -3.08068258663672
H         2.98350028856102    3.59447028429752   -3.77263694251907
H         2.58368188620839    4.22788924752336   -1.55583801161583
H         4.28365572596653    3.86999529109804   -1.74098023361028
H         0.94026968796928    4.27495157627274    1.95190957051321
H         6.71892049006839    2.78478119858553    1.10960927648888
H         4.15708926789973    1.43326982709189   -4.51927733902210
H         5.69582190311366    3.73757812987155   -3.36788307477577
H         6.32226561294005    2.41358111943166   -4.19487444635271
H         5.33492452070026    1.58255291938425   -1.68555709890050
H         5.55796666281649    0.27015036019191   -2.89810376147480
H         3.17723742341065   -0.07343709321346   -2.70935821639557
