37
 energy: -49.854755052484 gnorm: 0.318397346720 xtb: 6.4.1 (79825abcba525fcdf90b791dcacef51065a7a4e7)
C         2.54516943707428   -1.29601837384769    0.31628180451294
C         2.86937163944429    0.17367893911864    0.52346292775033
C         2.93249170361195    0.97164622964644   -0.84516145710775
C         1.27998625127549    0.89227776555140   -1.38460979409167
C         0.98627453064991    1.88528847139654   -2.49723032801999
O         2.00963092624057    1.92466334634010   -3.41290122032458
C         3.13987358054363    2.69703342183897   -3.09276755923469
C         3.23452887965409    3.37680787255467   -1.75887119777745
C         3.27235669106942    2.40683618472872   -0.49081441868094
C         2.26567433705122    2.92130581070447    0.52521091862246
C         1.55654474179453    3.76959658515610    1.21627783782091
C         4.67183093056803    2.56236566279659    0.08163153654253
C         5.87136050932802    2.45319128737829    0.58087698086471
C         4.39394200590074    1.90418051724622   -3.49590743772572
N         5.53824068306660    2.87505524624835   -3.87961597478918
C         4.89717104277849    1.01017480724249   -2.38813690778357
N         3.88064592041196    0.22557045251295   -1.70375986359101
H         3.33358914626893   -1.72303776540065   -0.30011469798162
H         1.56524665295318   -1.36393606481607   -0.17312653482183
H         2.48928020834164   -1.81557839608545    1.28284767691898
H         3.88419662477623    0.30696280380074    0.91371793765408
H         2.15583338796776    0.76595069156082    1.10745689581115
H         0.62493328759430    1.04749535928184   -0.53108900889904
H         1.12346868959575   -0.15862584865802   -1.77585005098635
H         0.70863470868358    2.89581909004773   -2.14314862217459
H         0.16250731610098    1.43910014871534   -3.08649709920974
H         3.16862344193268    3.56703210102214   -3.75434609235699
H         2.45166851959319    4.16578858894394   -1.56164075324234
H         4.23096228343776    3.94493945351564   -1.89290582634284
H         1.00381546131188    4.17937900125413    2.03075373665513
H         6.83052571118378    2.60836975943548    1.02521506641347
H         4.07774245976772    1.34539539246011   -4.38000381320617
H         6.39730174851124    2.32724717011432   -3.82778883461791
H         5.35301879461400    3.20870968197238   -4.82863314020747
H         5.39612444766316    1.62790197885454   -1.61768572172605
H         5.64833549467081    0.28469916099918   -2.72971659030637
H         3.31925712091279   -0.32475092880687   -2.38751569168359
