37
 energy: -49.859563007251 gnorm: 0.320897666536 xtb: 6.4.1 (79825abcba525fcdf90b791dcacef51065a7a4e7)
C         2.51240482301420   -1.36693665786892    0.36245243078378
C         2.73960175662077    0.12993909134560    0.48809407284630
C         3.05780266495514    0.92775801907820   -0.84461061550552
C         1.62879539767743    0.77584589398073   -1.82590520295490
C         1.10412722057188    2.05648759817435   -2.45434885071299
O         1.90647209098746    2.69824820023507   -3.36629617078148
C         3.25831360441208    2.93691257951995   -3.06289315716335
C         3.44913637843845    3.42255022363182   -1.64685378374680
C         3.29434849883466    2.39654403101100   -0.43293615539772
C         2.20183351271139    2.85951045598254    0.51704746782530
C         1.52697165753270    3.58645353355993    1.36330436211047
C         4.57702167190860    2.53936280440646    0.37003598819345
C         5.56408381626788    2.88798171815361    1.14734507248550
C         4.16281450619864    1.71156749470165   -3.51967736492987
N         5.18164512188908    2.29097698536956   -4.53235612052154
C         4.99572849106898    1.05252264029712   -2.44657187445307
N         4.23567521555250    0.28537335930664   -1.47132818419482
H         3.43393952942124   -1.87655899132324    0.08867385421657
H         1.77698085656398   -1.54626052975360   -0.43213962599584
H         2.16489020708848   -1.77087367893870    1.32338129546713
H         3.63530181025642    0.36840771444666    1.07186409763049
H         1.89212567233908    0.62320220530542    0.97742770820049
H         0.78691672598997    0.37682560827071   -1.26580902281895
H         1.88152022503986   -0.01820245394888   -2.59244448749139
H         0.87201548531851    2.71354344637221   -1.59526118871979
H         0.18288680707368    1.78651940239083   -3.00511653712232
H         3.50324306315055    3.74671558460971   -3.75545294879078
H         2.69481783918288    4.23672071830355   -1.44096374217473
H         4.52969166807522    3.82844088986447   -1.61119797706224
H         0.97218104712468    4.05953052241707    2.14125537575260
H         6.46194748062485    3.14511907676762    1.66622443199946
H         3.55219491737989    0.96328603489826   -4.03062544882793
H         5.80471352422810    1.58541924097024   -4.92572578155000
H         4.60228211213814    2.71387925089780   -5.26157363775401
H         5.60807491559800    1.84414730747582   -1.97487426845357
H         5.60808887553902    0.34289651260035   -3.01988256243870
H         3.90971434088721   -0.61718617252456   -1.87712226869389
