37
 energy: -49.849902756421 gnorm: 0.313618739205 xtb: 6.4.1 (79825abcba525fcdf90b791dcacef51065a7a4e7)
C         2.53582724095221   -1.29874193918747    0.38269673892910
C         3.16327889055623    0.08101715637688    0.48570422985155
C         2.97332787857559    0.96439436188857   -0.81715108517097
C         1.30512480462210    0.93519298006004   -1.31144241090824
C         1.05972097738076    1.96123001415493   -2.40564817560412
O         1.99167635639347    1.98075178318253   -3.41477648669007
C         3.20296220546352    2.66255716114295   -3.20402172276874
C         3.40119479961741    3.36553319203895   -1.86167108407506
C         3.35229886893767    2.46775793691119   -0.54187836016206
C         2.36680391520532    2.99699304464639    0.48725025682546
C         1.44060026166660    3.40330655522480    1.31010609755810
C         4.60066621277855    2.62172033103353    0.31151872571947
C         5.48450433056917    3.06360155883055    1.16216994294406
C         4.43375898233396    1.78928667279596   -3.64185391247277
N         5.64397221809522    2.70483247927115   -3.95235229189656
C         4.80144503491647    0.82150958813461   -2.54282902593930
N         3.59859788297458    0.25179097401656   -1.95471450795530
H         2.71697476684519   -1.76770688639367   -0.58226610960132
H         1.44855791201663   -1.19665867745624    0.49135405447277
H         2.92188409123656   -1.89039977157375    1.22425299136565
H         4.23618050545001   -0.11202722268806    0.59317192105300
H         2.77336181364110    0.56486350211749    1.38838302467400
H         0.73111481275653    1.20811452914797   -0.42956318184176
H         1.03953769199482   -0.09508911370478   -1.69867281383075
H         0.94871547299147    2.95475563906340   -1.93213527501618
H         0.13663208302453    1.71400653105387   -2.96394846505505
H         3.19368691699034    3.49731338493187   -3.91007159895795
H         2.64697921513323    4.18967164351208   -1.69975929626487
H         4.42466174770101    3.89940755541790   -1.82832627324110
H         0.70012926974700    4.07315837457811    1.68400915704057
H         6.43661359272306    2.99454086612963    1.64199616196627
H         4.13824047818552    1.18779588188588   -4.50482958533357
H         6.38861202224060    2.22664346376872   -4.45990769028474
H         5.29194089626682    3.44244391276622   -4.56738833338306
H         5.43952685509862    1.31837955662798   -1.78777391930969
H         5.42314968255891    0.01716462551185   -2.95966489146608
H         2.96242010033999    0.06111989358438   -2.75749430799725
