37
 energy: -49.857713986888 gnorm: 0.319883391252 xtb: 6.4.1 (79825abcba525fcdf90b791dcacef51065a7a4e7)
C         2.48175451075929   -1.28842799471340    0.42279199997717
C         2.75657671626822    0.20018418714480    0.55143027143321
C         3.06561586887142    0.94996470860182   -0.81099132915063
C         1.57886969101030    0.90337128336677   -1.71403783210882
C         1.13945305008524    2.23275725306315   -2.30556741579403
O         1.92235555837059    2.66815421194804   -3.34708315106799
C         3.28522576628674    2.88541143836580   -3.07899054391380
C         3.61881567895060    3.38662901835918   -1.67159320491567
C         3.35953907240502    2.39702921116250   -0.44533390550600
C         2.15212086620024    2.91786108429022    0.31707754058280
C         1.32792796658883    3.59830978484048    1.06389153197918
C         4.58066049058469    2.48337549709077    0.45567595892701
C         5.64925271066198    2.87999415653954    1.08879565111021
C         4.14177655770754    1.61083591686619   -3.53647770212024
N         5.07146159880023    2.11285116355247   -4.66913645913119
C         4.98523013292048    1.03467014257129   -2.42460527822977
N         4.22881914184597    0.28035112584090   -1.43660503027891
H         3.42508724645932   -1.72689571439740    0.10378533009900
H         1.67753683020024   -1.54528069185000   -0.27838031295070
H         2.30398787672142   -1.74392229158926    1.40678375685632
H         3.59921733000300    0.38737520769459    1.22585567876330
H         1.83785154674691    0.63937020739990    0.95643807659921
H         0.82234312053769    0.56546997801702   -1.01035120204293
H         1.66901705297402    0.09466180931227   -2.50132909442173
H         1.03302054547082    2.98297640095323   -1.49966840944798
H         0.12515169138354    2.05077563997179   -2.70928416906088
H         3.61273896287385    3.65499603217831   -3.78318161941855
H         3.06057064918144    4.35959374840138   -1.54524891797820
H         4.73588371213223    3.67874533158105   -1.69269704862835
H         0.59059865082143    4.05608141670856    1.68324026047569
H         6.44440225738605    2.95264422280552    1.79870675068914
H         3.48631059970481    0.88652782099980   -4.02595858012900
H         5.82742801758768    1.45443307923273   -4.85825561416367
H         4.51859883344113    2.14944815801979   -5.52894424775029
H         5.52942547659954    1.87863765190389   -1.96016296754827
H         5.67696139415406    0.36637531131156   -2.95576392429684
H         4.09405953275531   -0.70188316931441   -1.75689970164286
