37
 energy: -49.857179303073 gnorm: 0.319758980665 xtb: 6.4.1 (79825abcba525fcdf90b791dcacef51065a7a4e7)
C         2.55776574984404   -1.28455067027693    0.51661026650684
C         2.92170773331478    0.18616842658887    0.62873897966857
C         2.97186206012729    0.92573269175382   -0.77283081423303
C         1.40450717190531    0.80060616283401   -1.51836427248221
C         1.12041869175991    2.02172278027596   -2.37768332338003
O         1.93848455060286    2.31788097050879   -3.44084862242080
C         3.20648353962820    2.84013741055143   -3.13114501130193
C         3.39923689540393    3.38350156113252   -1.70435382088810
C         3.27692845553824    2.38721748649580   -0.46229797720893
C         2.19057708305138    2.92333459384064    0.45575160115274
C         1.34124850534832    3.76652889521174    0.97314880422489
C         4.60508194590648    2.51846899972336    0.26515875256254
C         5.74813931091947    2.71903383347502    0.85949023332682
C         4.26924712945948    1.79769647317454   -3.59824132162209
N         5.45636206291268    2.47101874981518   -4.33080168768777
C         4.89380969021897    0.94558344701538   -2.51960040900215
N         4.01880261088223    0.25961453792705   -1.58092659809964
H         3.35032047329635   -1.73850987815916   -0.07472203837382
H         1.59382194062115   -1.34329746426059   -0.00467961929437
H         2.47280060875134   -1.67344417635506    1.54074823280438
H         3.89611853014718    0.35934574058334    1.09827761396133
H         2.23181795460762    0.71503182158860    1.29606740137879
H         0.63041223044390    0.77252715036904   -0.75568923814495
H         1.33886604692861   -0.12385992398095   -2.16876321857431
H         0.97951898586811    2.92469071899393   -1.75444498142830
H         0.14666965740244    1.86068948805441   -2.87847556327922
H         3.32938104181875    3.72609237100923   -3.75994579357733
H         2.73558234549157    4.27975011095910   -1.52953408518958
H         4.45266391953686    3.84071567200700   -1.58243141612088
H         0.70999954016667    4.18772993744228    1.72209254115386
H         6.66926963606232    2.81182825186485    1.39280317733327
H         3.72002113333824    1.09999818967530   -4.23496518655068
H         6.18146474432913    1.77912286042944   -4.52125334703860
H         5.08047532146406    2.74946080534817   -5.24044183082685
H         5.49548474475379    1.57552616935362   -1.83747455244275
H         5.50268316417905    0.15050243472596   -2.97166113851298
H         3.52391346771890   -0.51125251272237   -2.07729517644177
