37
 energy: -49.854653492433 gnorm: 0.328028779923 xtb: 6.4.1 (79825abcba525fcdf90b791dcacef51065a7a4e7)
C         2.53856658844847   -1.25838723309150    0.44947990946866
C         2.73615163061668    0.24039008447192    0.60003880505381
C         2.93349157281328    0.99452599575377   -0.78061488816010
C         1.42826466695988    0.83241494690838   -1.63857182244211
C         1.03962064278955    2.11312995319222   -2.35897877993784
O         1.91282887215029    2.32677505812167   -3.39778821072408
C         3.21526137307491    2.79887230266116   -3.15844886100906
C         3.55309091114889    3.40570604289272   -1.76626043854725
C         3.28741593532128    2.43319378615139   -0.52776103990581
C         2.23477988910458    3.04867812995267    0.37972569468754
C         1.51076743298463    3.67444289594839    1.26531024455239
C         4.56048684764265    2.57314928492701    0.29084445960958
C         5.81335660306658    2.71108200084197    0.62450331056202
C         4.22905617786996    1.67507200953469   -3.47630454987261
N         5.40948979082018    2.31930789729307   -4.24493062914246
C         4.91012150835124    0.97441933201831   -2.32527150899883
N         3.97019104682735    0.22479152438128   -1.50558368184604
H         3.48347680524623   -1.61379519917693    0.04361576135355
H         1.69521926359139   -1.50457325138252   -0.20819761960222
H         2.31690705916703   -1.75433255732504    1.40458257240058
H         3.60993122295871    0.46364753749545    1.22180937838362
H         1.83868753295923    0.62432761302237    1.09815705142501
H         0.72017543016195    0.50529456236998   -0.88141496674791
H         1.67740214005800    0.09701357317714   -2.46263518838589
H         0.87324373938038    2.98662515483378   -1.70098583537401
H         0.07025864450894    1.95369374106766   -2.86871320219536
H         3.39147962100276    3.63055818774520   -3.84594877333377
H         2.91527405314750    4.32950835375082   -1.64777115850199
H         4.65596430938217    3.74408794760360   -1.81904546366205
H         0.69921067078062    4.06647912824856    1.83494648755907
H         6.70285138751008    2.75604355766747    1.21466610394432
H         3.74505220614986    0.88669718089322   -4.05772922660849
H         6.13325061322167    1.70611809231227   -4.62034265601718
H         5.03767605093473    2.83011927041716   -5.04935110042451
H         5.50921539144455    1.72053079968129   -1.76980721136679
H         5.63882569438320    0.26991798252891   -2.74942676879439
H         3.51367864188140   -0.49499642605905   -2.10477878355819
