37
 energy: -49.854641887176 gnorm: 0.323186512494 xtb: 6.4.1 (79825abcba525fcdf90b791dcacef51065a7a4e7)
C         2.44534527613081   -1.24381229329685    0.40900206657473
C         2.77125083239350    0.23270314498921    0.55640968649838
C         3.03335921340902    0.97428971632938   -0.82025919154053
C         1.52662765237245    0.84308672458682   -1.68085428165428
C         1.09593571389513    2.12253613687433   -2.37926314805884
O         1.91345161831762    2.60726466824197   -3.37121469576965
C         3.27031800147240    2.86655630145348   -3.11011889098322
C         3.57470888956737    3.39195470081742   -1.71852820073651
C         3.36641563545702    2.41686526625526   -0.47110744669864
C         2.21503454747392    3.00546937059926    0.32780598221320
C         1.42014864323811    3.58166372938369    1.18582228391602
C         4.59900653055921    2.55212090734402    0.40800434058610
C         5.71208806510462    2.61937600790322    1.08369845549428
C         4.19808250138169    1.67910174221239   -3.51265169342183
N         5.12724989912085    2.21678004176450   -4.62925342929144
C         5.06127425097690    1.08258063306897   -2.42697043733888
N         4.23064221268647    0.38188191489488   -1.45930780000138
H         3.30189550468766   -1.72370227652219   -0.05995758716337
H         1.52091029828954   -1.47511465452429   -0.13533348031149
H         2.31098100413534   -1.71809130493413    1.39100077828775
H         3.60633494343329    0.29432641392658    1.26264648273655
H         1.93143654502994    0.68047344034392    1.09971930824580
H         0.80302400244258    0.58731580703193   -0.91100779509198
H         1.57884923746501   -0.02093396831581   -2.41072155746663
H         0.90189204817162    2.88765534755977   -1.60429895174248
H         0.11744394662213    1.88514822723866   -2.83873307349886
H         3.55843305536861    3.60027440977081   -3.86778495531446
H         2.82548515915772    4.22680149054189   -1.59221350116951
H         4.63263716604015    3.83580697274056   -1.58661447706045
H         0.58244868508899    4.16427190355144    1.49506132192073
H         6.59141875150912    2.75890540951171    1.67431140978997
H         3.56247839899974    0.90475452408066   -3.94882044584334
H         5.75744775461893    1.43575414679606   -4.81259701170289
H         4.47483942936704    2.24799889524219   -5.41643318820328
H         5.67231064650714    1.84663730422923   -1.91026131660861
H         5.76331066875883    0.29956683860489   -2.74520602985668
H         3.90971452585326   -0.55102091196276   -1.79431641901903
