37
 energy: -49.852548909932 gnorm: 0.327214227639 xtb: 6.4.1 (79825abcba525fcdf90b791dcacef51065a7a4e7)
C         2.87418100178900   -1.39097473121296    0.33466921766336
C         2.97147895616817    0.10922347832946    0.55371194805891
C         3.09722035194875    0.96412887050502   -0.77564673863251
C         1.64709018582509    0.77336208950206   -1.71841323565996
C         1.05500866799308    2.05465979462982   -2.28230769061873
O         1.77992696756370    2.75146591299032   -3.21837209467341
C         3.14288472988166    3.04852621710242   -3.04346964772725
C         3.50509541777936    3.46964072282458   -1.66951189762811
C         3.30897465461233    2.46041193478012   -0.44753076684477
C         2.09026511366778    2.86970379144632    0.36340880136533
C         1.00423400618356    3.29836443871213    0.94377243670067
C         4.56389520829378    2.57192746681045    0.40285185647664
C         5.58810089129361    2.52693688775324    1.20846639154096
C         4.10314494664989    1.87193301162085   -3.50250276081290
N         4.90108272850688    2.33974110578172   -4.74496013501827
C         5.02269970075826    1.18461557296604   -2.52186265720563
N         4.26132116996259    0.44301931313505   -1.52806339340866
H         2.17690095520648   -1.64069197583679   -0.46241150677365
H         2.53473124328359   -1.89490680626968    1.24856654415775
H         3.85180546709386   -1.82467705123597    0.08273964270677
H         3.80512251739946    0.25830961419881    1.24851051534003
H         2.06639894153570    0.44997411761656    1.06916397174953
H         1.02877312426372    0.24306357368564   -0.99858540007242
H         1.89551560841895    0.01785445607341   -2.52430287904792
H         0.77852507384115    2.69392044467178   -1.42292855434878
H         0.16212012877889    1.82536215889338   -2.89474905227728
H         3.27839595742958    3.82862332199806   -3.79745613695669
H         2.88334140557630    4.37213764148022   -1.39899014180880
H         4.60044168314451    3.83539132302594   -1.67734508632230
H         0.17085497682025    3.51987343148558    1.57084132437456
H         6.53123493865796    2.52247711293398    1.71045528926700
H         3.48956032825161    1.04816915193896   -3.87502979250878
H         5.48568760805051    3.15086006191292   -4.54225633950076
H         5.51687535389398    1.55967836323972   -4.98696751283111
H         5.68312368222175    1.94439114971733   -2.06282276071578
H         5.65975827611586    0.45554811849562   -3.04133993773459
H         3.96955166434726   -0.48303173405430   -1.90599599716512
