37
 energy: -49.859152690567 gnorm: 0.322507687679 xtb: 6.4.1 (79825abcba525fcdf90b791dcacef51065a7a4e7)
C         2.41659210919503   -1.27987648422075    0.53393498700581
C         2.82749526500294    0.17792323897181    0.65234039706649
C         2.97216160717355    0.95128893862136   -0.72419358000240
C         1.51637650000794    0.81710110041578   -1.66799518894988
C         1.11760789442718    2.11127722217685   -2.35817853721224
O         1.91632059015368    2.52817159857757   -3.39525085133990
C         3.26091752346427    2.82536358032923   -3.11200967321824
C         3.55890923555232    3.37193471472615   -1.76040844637405
C         3.33685317114668    2.43714513611873   -0.48482875110969
C         2.31204772893497    3.12339299256055    0.40355939128648
C         1.37467871327063    3.85289970509470    0.94132773378426
C         4.64308803248109    2.47344910391367    0.29160185630630
C         5.72150826519236    2.75153574975470    0.96962387865034
C         4.20048402437710    1.60435128110097   -3.58867456281421
N         5.25343295509466    2.31971603184096   -4.47117173905003
C         4.87926067473667    0.92549688243922   -2.42331616971795
N         4.09087958130555    0.25539431706215   -1.40022425801760
H         3.16592293417001   -1.86959100567148    0.00987779088264
H         1.43447406146379   -1.33646025696428    0.04749443034917
H         2.29761285831980   -1.71132575622346    1.53743449962589
H         3.82180168831646    0.16981658132049    1.11192970374886
H         2.06501236474825    0.70436803719275    1.23753038416551
H         0.68379863068225    0.47614477353570   -1.05787430584611
H         1.69153965184716    0.01252032152204   -2.44512627988711
H         0.99562025225507    2.90824450543678   -1.60081995575281
H         0.12359149972043    1.94057331720101   -2.81392337209914
H         3.57792365298538    3.58617322645093   -3.83040107629008
H         3.05342283795333    4.36853989589996   -1.60065120412955
H         4.65986932827279    3.71624082904789   -1.70601652051015
H         0.67022259298856    4.32397776159148    1.58834341395072
H         6.67419708295213    2.63878090115015    1.43992693253926
H         3.54980465584651    0.88673530850904   -4.09413776129935
H         5.94636264726675    1.67730933648732   -4.85578548602571
H         4.70666411043544    2.73039374468104   -5.23186461885164
H         5.48986775598005    1.70571165835982   -1.93081207366810
H         5.59260577856452    0.19066452208821   -2.82131088272342
H         3.69430515316390   -0.60958273495133   -1.82457842824950
