37
 energy: -49.854187126292 gnorm: 0.325562686283 xtb: 6.4.1 (79825abcba525fcdf90b791dcacef51065a7a4e7)
C         2.44701576154293   -1.25883674588348    0.57037367802926
C         2.88143508051262    0.19682812586893    0.55137594148513
C         2.95297480009849    0.97222470155224   -0.82975072358296
C         1.34411951828707    0.89632352890732   -1.48846297143787
C         1.04558541838485    1.93734101608551   -2.55496251282744
O         2.02129841216497    2.12989034146208   -3.50268124072283
C         3.21513733123412    2.80598894286324   -3.19587695689768
C         3.39764165595766    3.37716171083719   -1.75729078654411
C         3.32268485896263    2.39059135384276   -0.50377396075713
C         2.31686580366243    3.06078336077304    0.41794538951089
C         1.56527437928888    3.64717884780193    1.30748804934437
C         4.68252447700159    2.46961703333993    0.17076523567461
C         5.70714762195263    2.80050351373291    0.90608683203379
C         4.31036199923780    1.84249773492285   -3.57399011068310
N         5.52538957996125    2.63513614650195   -4.11683610169175
C         4.83278988522667    0.92348647983446   -2.49596940725593
N         3.88399220493282    0.18839658826028   -1.67333639696693
H         3.14148486690937   -1.95249355776172    0.10085399164176
H         1.44691282762216   -1.40929630795655    0.14430086743852
H         2.35327026362778   -1.61147450737323    1.60679743261731
H         3.85488761968701    0.27504538932087    1.04756695898008
H         2.11968413829614    0.73706036845471    1.12483583186605
H         0.73511225526312    1.07511595190861   -0.60595062567747
H         1.21612965574785   -0.17147136934171   -1.84257840799539
H         0.72202234427972    2.88560797377610   -2.08621250442203
H         0.15233030836480    1.51274292254004   -3.05167524474215
H         3.25397711529534    3.61420087088313   -3.93119686168426
H         2.76454914874636    4.28373411479133   -1.53017601687865
H         4.48334860579831    3.77053074607758   -1.74635776827951
H         1.10227415218673    4.36029320784990    1.95083941235960
H         6.69746416435138    2.67576561676881    1.28717501917599
H         3.84203779956647    1.23177018972854   -4.34957613384829
H         6.20781962676238    1.90456541958859   -4.32011251227107
H         5.31782746190459    3.06795291782020   -5.02008225878848
H         5.43501993846354    1.49797899714870   -1.76698813218491
H         5.44903226889066    0.14871020776456   -2.97263142524301
H         3.30126682772124   -0.41893339888649   -2.28743285587454
