37
 energy: -49.853803939260 gnorm: 0.315685682260 xtb: 6.4.1 (79825abcba525fcdf90b791dcacef51065a7a4e7)
C         2.69711483118069   -1.24296074861570    0.51149331866735
C         2.99242427541472    0.24472062034291    0.59888756428019
C         2.92390118255075    0.97516197342753   -0.80668301790157
C         1.29415629378630    0.95447549119376   -1.41625811445064
C         0.97316468039165    1.96709745326152   -2.50337468378264
O         1.94684398644765    1.95856011203552   -3.47246580382092
C         3.08981061239501    2.72301842268811   -3.17968545042308
C         3.42600120535925    3.37082018997899   -1.85456002583198
C         3.34362504068760    2.44954270717773   -0.55275128511154
C         2.33122642248329    3.03709705673994    0.41690057528108
C         1.31166461108428    3.55232614819330    1.04544511975369
C         4.71290540402324    2.55916858823760    0.09799096744756
C         5.75076203882630    2.34151291225840    0.85661859705304
C         4.33281556599781    1.87212535182679   -3.55672909535249
N         5.49203139481616    2.87079011065903   -3.79784484571807
C         4.81256101540552    0.93009551291089   -2.47873776587052
N         3.77508499493925    0.21538682362123   -1.75063457752701
H         3.29717714040305   -1.67802272226277   -0.28508822205957
H         1.66077932046102   -1.36835197936705    0.17286705467961
H         2.84843353948480   -1.80874697448804    1.44117305030522
H         4.02375069136023    0.38894515784777    0.93873814723753
H         2.39571834459736    0.73691515308502    1.37519819401757
H         0.73685843731943    1.26516468040614   -0.53615815179745
H         1.03341959041659   -0.11359320615778   -1.68683291247095
H         0.80338205435782    2.95432510118641   -2.03413563228800
H         0.02898963727635    1.70641034948741   -3.01862946790789
H         3.04716178530719    3.49133531020177   -3.95639688313654
H         2.75645820557828    4.24291214230294   -1.59876994682418
H         4.53156401606741    3.66553160772159   -2.01106676656736
H         0.59906427839684    3.95454234203436    1.72898381387531
H         6.69371218358608    2.37994938911635    1.35750010740299
H         4.10699391684903    1.31335778770133   -4.46811966028553
H         6.36429425923117    2.34692451024577   -3.87192576744823
H         5.49715403358988    3.33339654921181   -4.71011402325247
H         5.39662438808858    1.51423904282773   -1.74267886739055
H         5.52099440518948    0.18500235322220   -2.86629155853501
H         3.13825029225932   -0.28388750645717   -2.40691176300026
