37
 energy: -49.853908501444 gnorm: 0.324528929103 xtb: 6.4.1 (79825abcba525fcdf90b791dcacef51065a7a4e7)
C         2.50777085089137   -1.22456179008431    0.43685278659178
C         2.82472839113703    0.23994164422633    0.68746979721713
C         3.02082867777087    0.98891915769042   -0.69616527306456
C         1.57723807154376    0.78119135395089   -1.64536148680185
C         1.10971921820502    2.00179827052274   -2.42112315509271
O         1.89471387187350    2.37239213143796   -3.48587921166340
C         3.19594513731055    2.78862408705370   -3.15415989503630
C         3.39544941056873    3.39876741651619   -1.79188349587896
C         3.29410881882182    2.47604662525460   -0.49243729276177
C         2.22597862320534    3.11005278648305    0.38365051248486
C         1.40136960829738    3.55798676579060    1.28886355262795
C         4.55179103082613    2.64630385592456    0.34401947000058
C         5.64815635952797    2.37472727743785    0.99537611829181
C         4.25703572043730    1.72630495920925   -3.60025229591359
N         5.30515318291792    2.41484938500738   -4.50943093724643
C         4.95447900124196    1.10148057033995   -2.41585009521843
N         4.14816499633690    0.38279277280618   -1.44083992534384
H         3.21338777002231   -1.53605232019710   -0.33059379783239
H         1.51307765951648   -1.30503929355084   -0.01975516846461
H         2.61276948718308   -1.82649276384441    1.35007247399191
H         3.73244690498940    0.45917393215999    1.26011071055799
H         1.99591346039463    0.77260626888301    1.16737169127417
H         0.76772358345135    0.61786511686905   -0.93847008699652
H         1.76345267824816   -0.09900561133455   -2.33277876508799
H         1.00610739898572    2.83885181815565   -1.70541664709385
H         0.11606393244119    1.73487525595664   -2.82893812290255
H         3.30320686390974    3.58227294969603   -3.89848967183396
H         2.70480359804211    4.28365266118824   -1.67252176144655
H         4.41575190899935    3.93366227191294   -1.87243536983470
H         0.80915820876640    4.11660290103049    1.97736619807969
H         6.54385654644804    2.38483031330228    1.57772799208920
H         3.70719501179300    0.93992702133632   -4.12287482095122
H         6.02291035441627    1.70245470329550   -4.64390812905888
H         4.85196532019247    2.62873526253351   -5.40113694437910
H         5.50081158195594    1.90439428114389   -1.88576833452726
H         5.60419264123486    0.33027558744850   -2.85214665360780
H         3.93515669172545   -0.58292282666555   -1.76879401109593
