37
 energy: -49.855740536739 gnorm: 0.318531459447 xtb: 6.4.1 (79825abcba525fcdf90b791dcacef51065a7a4e7)
C         2.62247809369829   -1.33859254540246    0.52505991896572
C         3.03510873546315    0.12352132183865    0.52557960784906
C         2.97848737726105    0.85683207809110   -0.87902638754221
C         1.41179158953044    0.75474810981589   -1.62944047526599
C         1.04282829216516    1.99488125162867   -2.42706016201984
O         1.91831365787462    2.34345573760776   -3.42670163682616
C         3.15335333759999    2.91764381145144   -3.07816957605466
C         3.41293544726313    3.39159946487738   -1.68767408868772
C         3.27551843352776    2.31664636995510   -0.51471354844666
C         2.23230255766937    2.86033203917780    0.44783634936266
C         1.44881608755290    3.43756477997984    1.31558450813361
C         4.57478966651318    2.33812141043065    0.27385801839903
C         5.62326750350175    2.88670189600662    0.82138878304762
C         4.22812124726212    1.94133912796104   -3.60177413403425
N         5.31223749490085    2.84126515116635   -4.24526038694320
C         4.83569083237177    1.00932345707671   -2.58106496469955
N         3.98800590266688    0.18731537131386   -1.73075194990545
H         3.45855407839175   -1.88380147148582    0.09190865025828
H         1.73790477074459   -1.49076483495710   -0.10641108491612
H         2.48168815364996   -1.67659614119908    1.56103654526771
H         4.04518714638379    0.15456620512378    0.94832200113869
H         2.30610226332825    0.63937291767530    1.16073180562331
H         0.69716218616250    0.61412744817472   -0.82246137851534
H         1.35473934025515   -0.19364646097937   -2.24527963514598
H         0.77617069086130    2.86098610277092   -1.79272116217168
H         0.09772011306689    1.75689471294556   -2.95150721156923
H         3.26183923615038    3.72815482470257   -3.80391961498112
H         2.82171411363004    4.30318410722520   -1.38151802119408
H         4.48255386713242    3.81952678520274   -1.76775497029909
H         0.63356757091065    3.63370793761592    1.97414350109307
H         6.51778576575682    3.00991616174399    1.39250168901959
H         3.78052542931755    1.42494467159838   -4.45432566850613
H         5.92000074659583    3.16087707322602   -3.49078195514211
H         5.91325701501773    2.27167615813700   -4.84576844362800
H         5.45900093798824    1.62827604825035   -1.90836994397288
H         5.57454989260509    0.35862572603582   -3.06883476533691
H         3.50911923417922   -0.50024919072264   -2.34998984528059
