37
 energy: -49.854044000625 gnorm: 0.324212906456 xtb: 6.4.1 (79825abcba525fcdf90b791dcacef51065a7a4e7)
C         2.78413163667354   -1.48291550818508    0.30696318170207
C         3.07497705999364    0.00082618056315    0.45515501080493
C         3.17018765389610    0.88719563079553   -0.85600965707609
C         1.70473986731225    0.69848549868874   -1.77521007146156
C         1.11976183515858    2.02137725952640   -2.24213552583533
O         1.77677574427724    2.70801101129208   -3.23416813122562
C         3.13298534548443    3.03274087000791   -3.05602327870498
C         3.48911816142433    3.42368525531938   -1.64449353331487
C         3.34195348515975    2.35203658727104   -0.46969323585569
C         2.18256373262161    2.74797604832343    0.42999739543932
C         1.32089578763245    3.45381511397876    1.10775482289070
C         4.48085175269890    2.57737024002820    0.51140179054158
C         5.34642779944874    2.73939386322406    1.47294367240708
C         4.01570259568616    1.89781188671527   -3.63975592102289
N         4.81814473841323    2.42218385611113   -4.85646052305636
C         4.92083016044188    1.21754214896833   -2.64094743321464
N         4.36425759901660    0.39299163376599   -1.57904221711363
H         2.27361341845959   -1.68441463647090   -0.63253939786577
H         2.14182555296034   -1.77212116630544    1.14850045377188
H         3.73869815969943   -2.02017152356573    0.22050778682854
H         4.05016040790056    0.08135018366508    0.94756402269149
H         2.29687557977047    0.40975344612519    1.10960760469213
H         1.06893062793868    0.15455742005890   -1.08125512073491
H         1.87889510781080   -0.00425135072441   -2.64572484134969
H         0.97232591668102    2.66681046489499   -1.35595919823135
H         0.10170570670915    1.84866889212721   -2.64043856339323
H         3.20523265786861    3.85308722496897   -3.77520517193246
H         2.78412738170917    4.26636488624848   -1.38538003521681
H         4.54988246713400    3.87114919680401   -1.55408658065006
H         0.52923937311123    3.81334861211879    1.72485940999733
H         5.97825623208101    3.07096009067862    2.26816140933742
H         3.37867508193512    1.13219002305576   -4.08905368238127
H         5.32113141872806    3.22849957574313   -4.48548206736126
H         5.57521894991094    1.74874854508575   -4.99642312819514
H         5.52993323647491    1.98880343479011   -2.13272911343710
H         5.65833198297368    0.62192996404881   -3.19644433998279
H         4.14537939986333   -0.59661743350733   -1.82049462896826
