37
 energy: -49.851432253389 gnorm: 0.326277179703 xtb: 6.4.1 (79825abcba525fcdf90b791dcacef51065a7a4e7)
C         2.68917234342889   -1.41268959935740    0.47686525930395
C         3.00154701849595    0.07393892051632    0.49683983458862
C         3.05554259482083    0.87915204788327   -0.86792569217165
C         1.54291556835621    0.74304834728053   -1.71734513656242
C         1.05346449253433    2.07249730917599   -2.26803959912357
O         1.81988227221178    2.56407987697418   -3.29673403484118
C         3.17153462244913    2.89522006262914   -3.09705515869025
C         3.34124221589831    3.43165309840554   -1.68348978426442
C         3.21999449664887    2.33810482357878   -0.52603775859305
C         2.14210074893184    2.76441203502254    0.45722370879223
C         1.43388640679274    3.58511093740039    1.18173823338797
C         4.51973559237842    2.45652514270255    0.25310387788145
C         5.45886410697730    2.62127580027366    1.14244698315760
C         4.22899734969207    1.87977849618564   -3.60638657636841
N         5.15794030230922    2.65954423816824   -4.56985936879593
C         4.97518571218449    1.12668747904403   -2.53135259200977
N         4.16600437509193    0.29443360755563   -1.65392549339456
H         3.57121120052401   -1.83112880677461   -0.00356364398802
H         1.80440943983846   -1.60395988031439   -0.14361220377655
H         2.54914170866921   -1.87188522620909    1.46522076509878
H         3.97208130466557    0.24346535653732    0.97564804144579
H         2.27610912038055    0.62274703616709    1.10800358339994
H         0.90943496263629    0.25304999092703   -0.98230190640237
H         1.67389671191829    0.08135478314505   -2.62672440791604
H         0.91758501617791    2.85892926709723   -1.50208176755664
H         0.03080766860815    1.90468231836043   -2.65652759112480
H         3.37847368549867    3.76142926222878   -3.73130137152957
H         2.60681893701954    4.25427862947368   -1.44230427794917
H         4.37131828768709    3.95109963458851   -1.63117449215346
H         0.62998466138577    3.84282984999652    1.83298721663911
H         6.38468093864877    2.67942489305866    1.67253798349848
H         3.67061896132041    1.13526751446728   -4.17889539137309
H         6.01420942245548    2.93606642252059   -4.08912625122196
H         5.51058522209954    1.93386353494405   -5.19858433903735
H         5.38973618851696    1.88958829459820   -1.84559269450679
H         5.82710984968611    0.53007285790354   -2.88563480195816
H         3.77567462478499   -0.46468679974916   -2.25134656144989
