37
 energy: -49.854558469020 gnorm: 0.325406473891 xtb: 6.4.1 (79825abcba525fcdf90b791dcacef51065a7a4e7)
C         2.39940213795647   -1.29483178268215    0.39607757822486
C         2.74210006645316    0.17747877256996    0.54740846158754
C         3.00332994782102    0.99287544270739   -0.78704118731279
C         1.60622329254289    0.80696610081597   -1.80763358473767
C         1.08833104788059    2.09708093741293   -2.42216805937856
O         1.88097363612859    2.74123660608319   -3.34088623050680
C         3.26592236165134    2.88122383785489   -3.14388329984031
C         3.56438228187064    3.42757943184291   -1.73645384487033
C         3.33002165323367    2.46438201320043   -0.48442754620899
C         2.30790966147113    3.06300496665287    0.46811297764393
C         1.39101711201207    3.54114882246305    1.26229308536252
C         4.62557186426603    2.49936130300270    0.30976267641822
C         5.65700388462866    2.73635060036920    1.07135333533895
C         4.14194871408579    1.64864955754033   -3.49527238230708
N         5.13282634062078    2.08065721327803   -4.60467778972310
C         4.95965769476026    1.05148622192917   -2.37527720660680
N         4.20768448774036    0.34186349919064   -1.35142607301898
H         3.28742752067167   -1.81698745344790    0.04584876440422
H         1.55860566031372   -1.51165082193455   -0.27506531683435
H         2.11566270432840   -1.65693837842335    1.39391852517730
H         3.70278768907010    0.19897900290608    1.07328900318178
H         2.02760791518834    0.79192872107532    1.10680442719720
H         0.87501539726505    0.30476908977002   -1.17928830279473
H         1.93579113652151    0.11015678723325   -2.63697483463508
H         0.83010377240194    2.76192724614685   -1.57663395815798
H         0.10111343617278    1.99073270139259   -2.91104760537240
H         3.56316582127513    3.71466461147425   -3.78609293413052
H         2.86437829452964    4.28615745569410   -1.51943089549542
H         4.65627802850042    3.79325928508037   -1.82397656850674
H         0.80423254915840    4.13330504000410    1.92700139916658
H         6.55939375907546    3.09222788952413    1.51919089933167
H         3.43725448100362    0.90561908123032   -3.87627253837656
H         5.89631479588212    1.41102260477070   -4.70184015213314
H         4.72278001833581    2.19179606225134   -5.53514873528044
H         5.57933567319580    1.84796385002752   -1.92167057100728
H         5.74542513279284    0.40653098336605   -2.79222072815013
H         3.95226577726050   -0.61242126419954   -1.68253770385751
