37
 energy: -49.855638632715 gnorm: 0.327575660372 xtb: 6.4.1 (79825abcba525fcdf90b791dcacef51065a7a4e7)
C         2.47678973182782   -1.28576865118006    0.32713733210687
C         3.14226688213418    0.06880110640446    0.50127007413416
C         2.96346656510551    0.94144278867589   -0.81036843821385
C         1.27935085321913    0.95398128220294   -1.24817568636333
C         1.07255821070758    1.96060178233337   -2.36809231763589
O         2.04941979341793    1.93081476438944   -3.33355389531551
C         3.17390341428065    2.75861859088387   -3.16994777272770
C         3.49162770419327    3.40510045739205   -1.84060543875424
C         3.33341130676160    2.41570235046708   -0.59710111914514
C         2.27778682154048    2.99324697264693    0.33160496139627
C         1.43325820708013    3.57638454531858    1.13581733696476
C         4.60946780740771    2.48331694140671    0.22601497820710
C         5.49446246268478    2.84106363333343    1.11418053433529
C         4.37103240079262    1.82879287161511   -3.58421673277046
N         5.57536843647135    2.70375811944131   -4.01230547550805
C         4.85493007636859    0.95635519403409   -2.45093090898203
N         3.76356082628509    0.22260372556970   -1.82817798929026
H         2.82239355320131   -1.67730127579156   -0.62740761152520
H         1.38360824950225   -1.18914569224433    0.32763603363335
H         2.79038734963381   -2.02710696944964    1.07506101823228
H         4.21392528513601   -0.10620103668822    0.64568554900281
H         2.76603092943645    0.54132220018796    1.41567804851909
H         0.63988334105315    1.16906900594136   -0.39582412194298
H         0.97802327442822   -0.04368638822936   -1.69069800413196
H         0.87741446803831    2.95437260232673   -1.92315599250911
H         0.16453489049888    1.64118026580826   -2.91432973436131
H         3.12965645698500    3.57693923900662   -3.89369077644167
H         2.79125441647197    4.26791996347220   -1.64241228987523
H         4.55841473332034    3.84265744236604   -1.90485204913959
H         0.82822224068377    3.89235562493317    1.95489975791622
H         6.27023706978446    3.29093930788137    1.69495610558324
H         4.01534312360484    1.25289531760859   -4.44193260366235
H         6.23995887170811    2.08668589797663   -4.47953890944427
H         5.22712590363561    3.29974016500930   -4.76715549397806
H         5.47340782632986    1.57635823171908   -1.77475201626423
H         5.52419570182918    0.23887420497092   -2.94544499321406
H         3.17851950401997   -0.18167434680468   -2.58963641286494
