37
 energy: -49.857737362358 gnorm: 0.323822860193 xtb: 6.4.1 (79825abcba525fcdf90b791dcacef51065a7a4e7)
C         2.68283501036150   -1.40698130713609    0.41555958223187
C         3.07171337517406    0.06051543614927    0.47272778483780
C         2.94561799512822    0.94330583169799   -0.83824502903218
C         1.31914878377810    0.77636802125805   -1.43390248371152
C         1.00218955424989    1.92610822804496   -2.37618460333888
O         1.95492817329155    2.07619457330157   -3.35446119455850
C         3.12219720357425    2.82663603493041   -3.12905006861186
C         3.36887528176097    3.40509134272062   -1.73411059530292
C         3.31655951972904    2.38549395325182   -0.50613329806547
C         2.22155366427957    2.93563422916219    0.39314623248861
C         1.47506737424779    3.49995908417051    1.30107308977089
C         4.63453499403547    2.50805021175673    0.24108325151880
C         5.61754471650721    2.83010695763311    1.03481343293180
C         4.28173084663869    1.91695465237254   -3.65933354435480
N         5.31172135734190    2.80657430557853   -4.39889142841465
C         4.88973295424479    1.11703425396648   -2.53234551716656
N         3.90005939620039    0.34310958166360   -1.79825689406878
H         3.19436238574323   -1.98121894279183   -0.35417201314310
H         1.62594470330470   -1.55352238372085    0.15886795807908
H         2.88023039668998   -1.82398722452348    1.41278419815797
H         4.14877321955066    0.11144801778561    0.66581138316431
H         2.54351854996166    0.55019628877425    1.29867845465433
H         0.73827356084948    0.80532549062259   -0.51551800119187
H         1.24751156281838   -0.21303233952852   -1.97972308310506
H         0.77153330399386    2.86039032084347   -1.83070818618371
H         0.02384846000993    1.67638985745075   -2.82939670533127
H         3.08104689147991    3.64948572693794   -3.84782364073003
H         2.62810283979571    4.23957128994553   -1.56334710634514
H         4.42068436518858    3.88094142046080   -1.76382022170378
H         0.66449219729148    3.69923374047724    1.96444308792952
H         6.53825251461412    2.91751081628765    1.56976418442401
H         3.91165473145700    1.20883216121585   -4.40462246570024
H         5.70189681848531    3.34704518199462   -3.62660909910409
H         6.09884997761697    2.28558525953574   -4.79292817764456
H         5.48736298888546    1.77007816535914   -1.86863746360254
H         5.61005078891219    0.42755762961856   -2.99386889481679
H         3.45443285421785   -0.29458160723254   -2.49129366947484
