37
 energy: -49.855172569892 gnorm: 0.329831167761 xtb: 6.4.1 (79825abcba525fcdf90b791dcacef51065a7a4e7)
C         2.59774622004377   -1.29092384146235    0.42181444043532
C         2.84707869712877    0.20370384624217    0.53118842544933
C         2.87816505050273    1.07614750156994   -0.79234636932837
C         1.23506443836969    0.96780781448489   -1.35498392759954
C         0.99666067409120    1.99947137666096   -2.44544035906499
O         1.97002898010448    1.97337270906548   -3.41453007450942
C         3.18224980819264    2.66472771878503   -3.24412330652039
C         3.39567701573930    3.35108233783978   -1.89354174094690
C         3.35740863221082    2.47386987400826   -0.55964600845073
C         2.42361312319315    3.17938236619323    0.41023744231062
C         1.62506027537023    3.63112854847030    1.33666834791559
C         4.69891000028244    2.55298535322927    0.15065448846885
C         5.64916928546295    2.84228496231219    0.99525456624675
C         4.38352314447504    1.73870409140854   -3.62750919247231
N         5.61466564605677    2.57882375744830   -4.04909729824106
C         4.82613895952724    0.86530214307931   -2.47820440391424
N         3.74530922409268    0.28535443552805   -1.69541005289822
H         3.36348096721359   -1.71189443091511   -0.22651410797669
H         1.60955457100496   -1.54569213306667    0.01814083397085
H         2.72030868090266   -1.78922546653331    1.39340578556627
H         3.79832840159316    0.41781167249471    1.03040295917599
H         2.08631949771763    0.70212646049156    1.14257370324539
H         0.53685717028657    1.00200125519362   -0.52250447632694
H         1.17330029078261   -0.06468519215660   -1.81553628444439
H         0.78031228038165    3.00179365794221   -2.03050268498518
H         0.09784497833221    1.73773786286682   -3.03581116076614
H         3.25899415503043    3.48371488335562   -3.96438766166694
H         2.59369127960095    4.13665837805314   -1.77543193437648
H         4.40884525087326    3.88201636329528   -2.05234189945625
H         1.10909760095480    4.22354823438102    2.05751763918244
H         6.48201332327349    2.82177905814442    1.66418275023435
H         4.00900865306619    1.05537902555779   -4.39344334101224
H         6.32045622061363    1.85723164180279   -4.19718557733167
H         5.45502063925116    2.98592061639301   -4.97378731653803
H         5.36611798101623    1.40370576051725   -1.67653078580547
H         5.45168852364459    0.04241446259549   -2.85074062326675
H         3.12836677515214   -0.26369044490805   -2.33059882275491
