37
 energy: -49.854781078160 gnorm: 0.320125612748 xtb: 6.4.1 (79825abcba525fcdf90b791dcacef51065a7a4e7)
C         2.81025599057672   -1.39143473408952    0.43207155563219
C         2.73520026811074    0.12501601747493    0.48484497674941
C         2.98327785716513    0.87896916706521   -0.88770039728302
C         1.52320917704468    0.73863760574394   -1.82396138288124
C         1.11253573123220    2.07272268731026   -2.42548079645425
O         1.90869238050504    2.64566793887770   -3.38731768723235
C         3.24047700334195    2.94033566838824   -3.04671498676823
C         3.44780234123698    3.47073718199279   -1.66933738945343
C         3.26510455160410    2.37014434772077   -0.52672593044437
C         2.20705657214500    2.91568031310883    0.41843057074489
C         1.63785322120428    3.65726450624626    1.32732877814715
C         4.56413726815032    2.38823497649820    0.26232332226938
C         5.45568697203664    2.61325443490281    1.18673752673841
C         4.09217198436891    1.83376412280177   -3.53135670103542
N         5.09768398556041    2.49935686826285   -4.50356108077780
C         4.88708689295260    1.04972976474903   -2.51497014394585
N         4.12061116640132    0.23529736141845   -1.58410276495078
H         3.82946341393828   -1.68159021804417    0.18524799490655
H         2.11145313679878   -1.79162470663658   -0.31351851642714
H         2.43511049548009   -1.80927294392490    1.37652531105941
H         3.58381681978375    0.44434738275943    1.09950808729167
H         1.82289195393111    0.52245479696963    0.94387392583115
H         0.81618062585743    0.41341709367589   -1.06499704672882
H         1.57541692360374   -0.09210587286281   -2.59149295604739
H         0.91782336554102    2.79091330402221   -1.60699488397538
H         0.12257161291800    1.92946354347789   -2.89914695810541
H         3.42738018688734    3.76841917840343   -3.73573988632349
H         2.68847037287403    4.29507819569162   -1.53466142181042
H         4.47235091137322    4.00059866554725   -1.61307603800946
H         0.95110619477949    4.02429179860402    2.05566369387305
H         6.39800995392191    2.78516149213554    1.66001331109839
H         3.48054944940700    1.17817616383106   -4.15583382033651
H         5.83480058440431    2.87457806590744   -3.90637281277632
H         5.53962346115545    1.68757145686205   -4.94169343114698
H         5.54682221615224    1.76160301055795   -1.98381840101299
H         5.61340621252501    0.39099141300019   -3.01071570010166
H         3.72800283236768   -0.56990545753533   -2.11611794866348
