37
 energy: -49.853612005962 gnorm: 0.319600886081 xtb: 6.4.1 (79825abcba525fcdf90b791dcacef51065a7a4e7)
C         2.85363609733016   -1.43433537008087    0.24268822253411
C         3.11623573754246    0.03540959290155    0.52363741778831
C         3.10980642582545    0.93547721385294   -0.78162331773791
C         1.59986732454787    0.72862420462139   -1.62148870832538
C         1.10229694252347    1.91776094316947   -2.42686987346820
O         1.86193686832486    2.56188572374472   -3.37307932507605
C         3.17252156230853    2.96302783999261   -3.06012195650468
C         3.34924396688514    3.46951774460873   -1.59857811314776
C         3.28611139231978    2.42629418696142   -0.39112504593558
C         2.07285434790321    2.78193683237909    0.45262937551775
C         1.31025051069876    3.52354390973680    1.20661203780741
C         4.54666102766285    2.61650990571261    0.43666994465778
C         5.47552907437704    2.83203049754537    1.32593442538776
C         4.12981790940841    1.84487843241594   -3.57938694718442
N         4.86361698142815    2.42795004759799   -4.81260057703722
C         4.96855335542590    1.25496195431498   -2.47116196076512
N         4.19507683438050    0.36877125372149   -1.61459942946514
H         1.83656242138030   -1.53457598647032   -0.13068666066774
H         3.04759102121306   -2.01994147363203    1.15033847300226
H         3.55070259545395   -1.82494676802448   -0.51152450692598
H         4.16815564055545    0.02243205597894    0.82897233777537
H         2.43684487068400    0.48317671649298    1.25773841413426
H         0.88168193088647    0.41791338872582   -0.86693377555244
H         1.82645404009491   -0.17368310917993   -2.26682975293293
H         0.78297789199845    2.61222808611421   -1.62725709986800
H         0.25124923382830    1.47033829524884   -2.97499626611863
H         3.29756150971533    3.84301494148992   -3.69683077892423
H         2.53074180341503    4.22359111942681   -1.40966459128519
H         4.35188994699895    4.02852992388003   -1.47278172913815
H         0.48411679837362    3.81009140144642    1.81669064979916
H         6.36908868603378    2.92704784209666    1.90389420418215
H         3.48327266953836    1.07886917767111   -4.01419546163252
H         5.53659632629373    3.10422505868150   -4.45132981200729
H         5.33471713922561    1.64582016167215   -5.27369004076612
H         5.51101566891083    1.99004995263229   -1.84704926096196
H         5.74123625113772    0.67827964204525   -2.99807588160059
H         3.82373895414073   -0.44048615895824   -2.15565733588645
