37
 energy: -49.851649172943 gnorm: 0.330010660638 xtb: 6.4.1 (79825abcba525fcdf90b791dcacef51065a7a4e7)
C         2.64156702446751   -1.41434686390007    0.30830927267948
C         2.91433396869605    0.05670765950932    0.57219951666849
C         2.95740497959927    0.95171006765079   -0.73584643952360
C         1.28113299935088    0.98463403171543   -1.20179320921331
C         1.08212176975352    2.05710554312007   -2.26031136068067
O         1.97655101749364    2.02849450487306   -3.30263549714531
C         3.17586416857724    2.75148890623148   -3.17847184169905
C         3.51518025849703    3.36486072099030   -1.79937437917473
C         3.36715556105041    2.41975320708409   -0.52066233459831
C         2.30965559921345    3.13724338153272    0.30231851987630
C         1.26490769007701    3.66016840957882    0.88118528482890
C         4.66591450839281    2.57717696295075    0.25319484280922
C         5.73605983181380    2.87655701089381    0.93524820962181
C         4.31206664472219    1.78508112150003   -3.61370935090181
N         5.56128863272827    2.56203532978075   -4.09851449352037
C         4.80205837161750    0.88585829545067   -2.50422855486981
N         3.74156424223278    0.22386345483211   -1.75963854083184
H         3.12258508098582   -1.80572017268416   -0.58575135690193
H         1.56059623793793   -1.56580991381991    0.19454152077988
H         2.89070181628315   -1.97014176686812    1.22282536856605
H         3.86806100832944    0.16308545463696    1.10042466825033
H         2.18566511924836    0.57006965441208    1.20975170262881
H         0.63437905196277    1.17780833912869   -0.34969131631856
H         1.00827352566112   -0.00975916961564   -1.66944153952898
H         1.00722204937884    3.02324550795530   -1.72683834672319
H         0.07908248741664    1.94557228022057   -2.71460674921321
H         3.10166934602213    3.61226834089364   -3.84851982876168
H         2.90330850190658    4.30271325687462   -1.65687407136632
H         4.63946806115992    3.59844078337462   -1.92199411262352
H         0.53346520517810    4.27522569638296    1.35394174941783
H         6.66628778875740    2.93263418644982    1.45778614427463
H         3.97815202058828    1.28528666616542   -4.52615436075095
H         6.46515927118708    2.13948604554771   -3.88582780793777
H         5.57192966818635    2.86520851065025   -5.07536596711484
H         5.41215264621665    1.48002250229161   -1.79790691404540
H         5.45566917519913    0.10824789793879   -2.92298219808851
H         3.05303122925262   -0.21014145817864   -2.41009612200667
