37
 energy: -49.860126082192 gnorm: 0.320937092051 xtb: 6.4.1 (79825abcba525fcdf90b791dcacef51065a7a4e7)
C         2.34610801203488   -1.21122971607366    0.55844048589673
C         2.92153962765444    0.19466910784426    0.57762981103118
C         3.00513624882049    0.94034312378893   -0.81909869261353
C         1.39639277733317    0.92463753490603   -1.48225471402073
C         1.09923578004945    2.09827697182789   -2.40123756494608
O         1.95571934406376    2.18676779385270   -3.47168941120190
C         3.20340512352554    2.74974924901020   -3.15103129269371
C         3.50034378040819    3.34936485273105   -1.77712952956163
C         3.34850670502719    2.40087108815096   -0.50137521250090
C         2.24675865709683    3.00145919223658    0.35643650933383
C         1.43987563222143    3.52505124768766    1.23667888004682
C         4.64387927546889    2.53616246294823    0.28228165619222
C         5.71518727685652    2.80291550072579    0.97595176190273
C         4.32076751299463    1.76803136241819   -3.59984809788520
N         5.45812801137906    2.49306666806111   -4.36141513083232
C         4.94653308674617    0.99033244523989   -2.46704491065883
N         3.95400523168470    0.23885594730501   -1.71373834197528
H         2.92893883951318   -1.92809807853779   -0.01628016304499
H         1.30330652841528   -1.15687731061654    0.22081216959829
H         2.32842900355961   -1.61124196428039    1.58166747060254
H         3.92444493201611    0.14543259415662    1.01545400905238
H         2.36746012508235    0.86402317798183    1.24541170161258
H         0.65081438655029    0.87456741500444   -0.69276724505646
H         1.38758607443177   -0.05824493106086   -2.04424189549744
H         1.01789591397608    3.00437327582302   -1.77194973696649
H         0.08306798860537    1.98528962410556   -2.82496937819529
H         3.31549345502810    3.59043788138387   -3.84102349637149
H         2.81055853541609    4.22795474327379   -1.61422808582007
H         4.58117650642201    3.75591985608295   -1.78861651985603
H         0.57342750201615    3.85154892915741    1.76532729095508
H         6.55500417690119    2.78940498872407    1.63628472561836
H         3.75934946658585    1.11495207765265   -4.27226656488697
H         6.19062824782133    1.78663759928019   -4.43329718207651
H         5.22035830953477    2.75081546974106   -5.32229864865021
H         5.48677649472897    1.68694759789458   -1.79846374273841
H         5.64188122109219    0.24630974287080   -2.87955044637719
H         3.38589186597147   -0.37631780964565   -2.33369115617314
