37
 energy: -49.853059373355 gnorm: 0.329921283683 xtb: 6.4.1 (79825abcba525fcdf90b791dcacef51065a7a4e7)
C         2.60891438019159   -1.30226021297859    0.52634816252079
C         2.78991849951286    0.20461904948815    0.59412481509082
C         2.99046440539640    0.99011295057630   -0.76846438085876
C         1.52147913887906    0.89335611755305   -1.69625667073759
C         1.11491425955506    2.14521489850005   -2.45639868414314
O         1.91247223842024    2.57367073645126   -3.48964054418837
C         3.23254266494543    2.89598948497923   -3.12906566233882
C         3.47752255371002    3.42496536273369   -1.76087745302793
C         3.28007524282403    2.47811275246562   -0.49015769312612
C         2.20459834741130    3.14597605499355    0.35109368754738
C         1.43687411905186    3.81915791146373    1.16193350881505
C         4.50947511920802    2.48473725696660    0.40367899714689
C         5.68943779401442    2.41280692101948    0.95372479494461
C         4.12464025432434    1.67534007461081   -3.55053805052826
N         5.26458083079577    2.06027588287531   -4.52604271428562
C         4.91004594492310    1.13891383058636   -2.37792302166155
N         4.17438375959788    0.35838746210464   -1.39462296899471
H         3.54517259400435   -1.75413577154005    0.20521752942315
H         1.83200800235589   -1.55794788917927   -0.20537739428844
H         2.28107092665755   -1.72618176477659    1.48557962372490
H         3.69173552117859    0.40387551766421    1.18315472220089
H         1.89088147071758    0.61958822904985    1.06370401034203
H         0.70553908698640    0.60133945573978   -1.04001531404056
H         1.68281825730774    0.04588953586982   -2.42956095532659
H         0.89021485234081    2.88526508015647   -1.66553475062111
H         0.09320878686551    2.03998089485124   -2.86865528162949
H         3.46530117294621    3.69561227101267   -3.83747041161933
H         2.78967182411443    4.29325539130615   -1.54363435396991
H         4.57590522899183    3.78149253276328   -1.75299197497452
H         0.84656461707124    4.32959627854871    1.88842481830374
H         6.62876919074170    2.23657970433602    1.43133874605522
H         3.50818525644141    0.92537702219290   -4.05192415461566
H         5.79536963602775    1.18980617374797   -4.56225575931165
H         4.95794410697973    2.27028014366095   -5.47900553662193
H         5.49187784123437    1.94260536675028   -1.88834366345074
H         5.69392231243135    0.45090601651508   -2.72349893922324
H         3.95430809410384   -0.59009811279020   -1.76539898631239
