37
 energy: -49.856460743602 gnorm: 0.335168062339 xtb: 6.4.1 (79825abcba525fcdf90b791dcacef51065a7a4e7)
C         2.50394037985172   -1.35233944453530    0.44572773036180
C         2.96041038793058    0.08981098789541    0.58671900501060
C         2.89633434734474    0.90827141896956   -0.76970475983114
C         1.27141000813660    0.86118548028145   -1.39057667702082
C         1.06190761758079    1.93151650554621   -2.44923693127942
O         2.00458816158413    1.99506177068887   -3.44652187922586
C         3.17270971597221    2.73806186734719   -3.20171084469916
C         3.28845179006946    3.35173463863553   -1.85799413612943
C         3.30836523540451    2.38769474526269   -0.58501552546748
C         2.40904722878124    3.07709556292443    0.42807357015645
C         1.57425440158862    3.64528399000879    1.25288771658062
C         4.62844595652799    2.48082488419763    0.16273157177289
C         5.81796494357333    2.63016171165722    0.67535163896892
C         4.42023414840524    1.88125742237189   -3.55210573378798
N         5.50122604941487    2.96125261342313   -3.80571239900510
C         4.83977017185794    0.95655502550508   -2.43471760859691
N         3.75395955417747    0.24448130427665   -1.77800947363783
H         3.22108967020913   -1.84488819569480   -0.20771581728423
H         1.46988147336044   -1.35205709914514    0.07816263901620
H         2.59409564080007   -1.85745832514779    1.41734635598667
H         3.98340364207643    0.16173404577944    0.97174522216170
H         2.31742516478803    0.64485355407136    1.27915627461039
H         0.55263011684919    0.96477367808258   -0.58168263542727
H         1.24987833316052   -0.16316037321566   -1.87246572178939
H         0.87768344219935    2.91750294301544   -1.98284433410006
H         0.14164446215913    1.62289253691436   -2.98100637515305
H         3.15907139813838    3.51151685624465   -3.97436328159013
H         2.49596530289352    4.15184886761836   -1.78025641225742
H         4.25607427610070    3.97138896916646   -1.97355167142523
H         0.81714682536764    4.00781609525619    1.91027715704346
H         6.72659311037338    2.77393005576583    1.21871169992975
H         4.21899409438300    1.38891626093394   -4.50654378374104
H         6.39295423457288    2.48157309694521   -3.68123726026765
H         5.39900943508781    3.20486851248428   -4.79387689349861
H         5.42970746099952    1.47947501812947   -1.65840255330623
H         5.39777893560823    0.14477007301912   -2.92141159569535
H         3.10679125196804   -0.10694305429874   -2.51503535391422
