37
 energy: -49.793114731388 gnorm: 0.340110644926 xtb: 6.4.1 (79825abcba525fcdf90b791dcacef51065a7a4e7)
C         2.76706599612488   -1.34331752500755    0.40823066703918
C         2.82555570840142    0.17476427379074    0.41515044196250
C         3.11873278221733    1.06512698687857   -0.86358725146388
C         1.76751384864156    0.78787226591598   -1.92444320050192
C         1.03153821662755    2.06260618307085   -2.30346114045344
O         1.78206725905861    2.85329008733342   -3.13939594424519
C         3.17024545358166    2.99656218926154   -2.96932549662854
C         3.78303129501940    3.44439803209705   -1.63411180370675
C         3.47864064553087    2.47301341901337   -0.40366381828093
C         2.17983827124759    2.91270840295701    0.25221460390917
C         1.32845844546314    3.14825397310941    1.21122772871964
C         4.66212383357719    2.44387458511311    0.54971459518684
C         5.33941480986963    2.50091566571788    1.66239581164657
C         3.87445615431161    1.85791125716778   -3.55646271556224
N         4.70107557223430    2.30370305987366   -4.78821733802161
C         4.95615797097913    1.17959154319137   -2.75058135609754
N         4.30388514230044    0.57086478930366   -1.60110706211165
H         1.69894874476415   -1.55017949079933    0.39308103512665
H         3.29333716516283   -1.71485599237745    1.29670116294499
H         3.18161256679884   -1.74436795053803   -0.52698348234874
H         3.56485483622496    0.44825259448014    1.17579112601241
H         1.86902961859841    0.62128223044831    0.70951615616209
H         1.02019556195088    0.10264930672498   -1.53243619551470
H         2.28874449075735    0.27138584839491   -2.78672244200197
H         0.51133580327273    2.48982278800477   -1.42567684007319
H         0.17488247056526    1.80034040977509   -2.95328370668572
H         3.44742381519172    3.84918246080777   -3.59512198128005
H         3.39008364941282    4.50108657511905   -1.57699594565584
H         4.93207103630931    3.51121981066382   -1.72824374976893
H         0.42726158128801    3.20968590217462    1.77768389424557
H         5.97678939951146    2.18721015652414    2.46042906522055
H         3.26864059297952    1.04306326806444   -3.96002142269048
H         5.68905081926328    2.19705160723057   -4.55735800031473
H         4.46597859187183    1.80927951121724   -5.65224324912474
H         5.74974881975535    1.94020005130099   -2.62478528695090
H         5.39689285596817    0.39046885933954   -3.37530351639871
H         4.83826385311202    0.11561234970521   -0.83122548092135
