37
 energy: -49.857870224756 gnorm: 0.324877675984 xtb: 6.4.1 (79825abcba525fcdf90b791dcacef51065a7a4e7)
C         2.66749760235433   -1.41983305202730    0.26324120867886
C         2.96320762598066    0.04941529213653    0.51205069901698
C         2.98212900447753    0.92901242938297   -0.80697147793797
C         1.44513298362881    0.69190861255870   -1.58767830050684
C         0.98517465385456    1.89340185534260   -2.39706918957599
O         1.81336637796620    2.27821751065193   -3.42336215725755
C         3.07125508018203    2.83699140765567   -3.13704538011351
C         3.26673468599921    3.35200191316637   -1.74020912898333
C         3.24990987178127    2.37269498648199   -0.47889279882159
C         2.24115342202982    2.97692916234578    0.48428285189974
C         1.62622475042112    3.67214480664810    1.40001940274949
C         4.58561278100145    2.52340875945872    0.23075148699839
C         5.64264262388189    2.56722236759715    0.99285683109653
C         4.21007981602529    1.93717051931805   -3.60495251906169
N         5.26082003634437    2.79393516288624   -4.35405116291451
C         4.93649172629447    1.19419927119066   -2.50952535085140
N         4.11037436719046    0.40378943222264   -1.60947999004043
H         3.28897692710106   -1.87700291815077   -0.50399735216690
H         1.61165126225265   -1.53301268233225   -0.01381632238059
H         2.71707014994622   -1.95047187617915    1.22411623128405
H         3.92919379960323    0.17692652467018    1.01259531242462
H         2.23202262568994    0.43095587913118    1.23369250454035
H         0.72083956387165    0.42647756736544   -0.82176053760238
H         1.63870752916512   -0.20065940830690   -2.25686909195335
H         0.75077701195723    2.69648513644199   -1.67336700958826
H         0.08993630781269    1.53480397020900   -2.94008634503764
H         3.14895165874839    3.69873246078432   -3.80545843415468
H         2.57606681600572    4.22620418650698   -1.55852523028355
H         4.31035093230400    3.84640881443038   -1.74693612655863
H         0.80333814105331    4.06693549542853    1.95120014923483
H         6.58575824046560    2.75369034540376    1.45898684162390
H         3.77427872497052    1.31978158206434   -4.39410249142869
H         5.87657406624508    3.33548917552678   -3.74714764428224
H         5.83641016539142    2.09240512839228   -4.82608678098690
H         5.46735638472022    1.98735287433549   -1.94985896363863
H         5.73537934908969    0.50283420051961   -2.81124132926245
H         3.91356272101748   -0.50415029149300   -2.08111933662895
