37
 energy: -49.855156710198 gnorm: 0.318258380813 xtb: 6.4.1 (79825abcba525fcdf90b791dcacef51065a7a4e7)
C         2.73865274035896   -1.42761662930400    0.39749767805533
C         2.83522629711063    0.08462455491805    0.50631599537939
C         2.99942578438509    0.87765155361358   -0.85677437338789
C         1.54453914129629    0.68372240554605   -1.79153341840784
C         1.01188616843830    1.99883396307708   -2.33653221723196
O         1.77544532869807    2.51331237921378   -3.35611607554820
C         3.11267040860674    2.84770161415588   -3.07952526360472
C         3.27634566956712    3.39146853104894   -1.64702322232835
C         3.25900411060252    2.32412292082916   -0.45928730296467
C         2.25441368440330    2.80315652562518    0.57595213886531
C         1.56231713241500    3.47085424879092    1.45641655822122
C         4.57938032768685    2.51760962184116    0.26843621237157
C         5.74451542735812    2.96343517483432    0.64756152652071
C         4.22924280276161    1.80452746845134   -3.55600301652725
N         5.15416096388546    2.51047880466709   -4.57845524007852
C         4.97350811932139    1.22443788422925   -2.37735699978814
N         4.14774689146189    0.31183323648614   -1.60110291268716
H         3.60860930572023   -1.99848234320920    0.07940373303482
H         1.90764767089401   -1.72178681665814   -0.25616620614084
H         2.46654261473331   -1.81452665288308    1.38924992605229
H         3.69625871445593    0.36979789260219    1.12050868160220
H         1.95352647001928    0.56555072354383    0.94482147412584
H         0.78744363747968    0.30904845712716   -1.10734744389027
H         1.74591825822808   -0.05111155530866   -2.62904795150408
H         0.84278663998083    2.72054518347153   -1.51545480304778
H         0.02944897838705    1.83227565627723   -2.81818278414564
H         3.23726631516137    3.72627356069113   -3.71827216701913
H         2.44837237588791    4.13671581689897   -1.46446509689207
H         4.27756430212578    3.96627476173609   -1.61914221588194
H         0.71108046287180    3.87043131674662    1.95894671530365
H         6.69241854810895    3.28434536196848    1.02174185283593
H         3.72788826337653    0.93988309476868   -3.99745867982193
H         5.57956083329576    3.31964359867394   -4.12562752214149
H         5.93212387212551    1.87498834460778   -4.77130647617100
H         5.42068641423587    1.96284539053748   -1.68531486525144
H         5.80536990287887    0.63720493344016   -2.79015605630351
H         3.78667751612410   -0.48905394311606   -2.16122939039504
