37
 energy: -49.854326498415 gnorm: 0.324735909361 xtb: 6.4.1 (79825abcba525fcdf90b791dcacef51065a7a4e7)
C         2.48976074045761   -1.35671098086011    0.35132848051742
C         2.86288055695401    0.10276487880875    0.54818653863672
C         2.90363968075134    0.88231742906090   -0.83185156268616
C         1.28362145069636    0.84275786367705   -1.46592892878411
C         1.04527712057872    1.95045750527519   -2.47906997195220
O         1.96684258115271    2.01691428388323   -3.49571271869791
C         3.18117291983148    2.66138747025287   -3.20152622570264
C         3.35534836851571    3.34219372753893   -1.79137185249594
C         3.25793901868601    2.33999918787685   -0.55187130316341
C         2.36454194434371    2.93889596861633    0.52216788209393
C         1.77641487371303    3.82860778008809    1.27220459683632
C         4.52196029985931    2.48691370862165    0.27943988932727
C         5.60969504091975    2.97047725212555    0.81145101188802
C         4.40559264895756    1.80934033791263   -3.55734884784514
N         5.57912853019847    2.76980005969808   -3.87291199781463
C         4.85584286373087    0.89228010018033   -2.44563103992737
N         3.77117564638122    0.17031172426737   -1.79789811030724
H         3.20687278894524   -1.91224416326936   -0.24952844089484
H         1.47239134806836   -1.41361637993228   -0.05622923704411
H         2.54463402146003   -1.74935950197558    1.37608790114528
H         3.85418590508261    0.24276972212605    0.99276011267775
H         2.14049720575111    0.66294526058180    1.15261341882903
H         0.65270689930444    0.90871721421790   -0.58316009709861
H         1.19781516956418   -0.16641363584505   -1.97206651743098
H         0.88332504118347    2.90089252483052   -1.93678346661808
H         0.08084834184108    1.82939338799795   -3.00834530752688
H         3.22725411349260    3.51797585832782   -3.87942243368304
H         2.63061867548335    4.19867853262557   -1.66702792976720
H         4.38532354953985    3.86368216035251   -1.76274938639017
H         1.42444919289385    4.31976787227390    2.15066016735541
H         6.58633709024232    3.25240765267364    1.14038889632054
H         4.15701626267859    1.18728284968771   -4.42054270283394
H         6.41826462735916    2.20367627043558   -3.99987703459223
H         5.33159209990083    3.21676624140701   -4.75903442658825
H         5.36454108156921    1.57203716625196   -1.73619968798454
H         5.63732772814033    0.17257362988995   -2.72588740441459
H         3.14903881444437   -0.17584630590458   -2.55859083396658
