37
 energy: -49.853103960923 gnorm: 0.322514998037 xtb: 6.4.1 (79825abcba525fcdf90b791dcacef51065a7a4e7)
C         2.65980907532661   -1.40233781423092    0.18585221012041
C         2.88588472745263    0.06051538801596    0.52789253781824
C         3.08802950885375    0.97047438442428   -0.75467549479238
C         1.60473172952634    0.87563077401224   -1.65961224327520
C         1.13310706078511    2.16336910806095   -2.31502161467065
O         1.92894132337540    2.61281067371982   -3.34064921849296
C         3.26992937471444    2.92315802161733   -3.05442356990431
C         3.50781708851820    3.42062591108580   -1.66156726208449
C         3.33393343023229    2.43235531636671   -0.41925903493884
C         2.16156264792838    2.94933319225885    0.39846737738409
C         1.29307173049485    3.58788584651148    1.13195870944360
C         4.60634291595131    2.50007711107487    0.40947484509503
C         5.44966021151892    2.83207759520033    1.34682639416605
C         4.15417886812463    1.76390266427460   -3.52444685218179
N         5.07759348501733    2.25674350867867   -4.66622738748051
C         4.97641301551884    1.06147070273231   -2.47080480369491
N         4.20900842795918    0.32642621697403   -1.47677308417232
H         3.52772370890644   -1.81905111358297   -0.32106993563244
H         1.72968150455874   -1.49907155011834   -0.38850594002011
H         2.47061297581529   -1.87887857623567    1.15766986090294
H         3.74579174488043    0.19174735711073    1.19367884276418
H         2.03870171179252    0.49178636656655    1.07310616643120
H         0.85336838056455    0.50818089829900   -0.96526483451249
H         1.78982312693750    0.12976780590349   -2.49111371620743
H         1.03564515566334    2.94190933113433   -1.53527412061303
H         0.15361187155865    2.04697080247532   -2.81697019711852
H         3.51117454015222    3.75263151839190   -3.72463614819544
H         2.98005851794023    4.41291103307535   -1.55620175327617
H         4.59756324128228    3.79834350624388   -1.60324873192601
H         0.45034627655486    4.01887487407769    1.62273823926261
H         6.39302141674148    2.82342456774049    1.84833349690513
H         3.42248029382936    1.01024823227934   -3.82523176420704
H         5.57373410646847    1.38062272957462   -4.83061266379038
H         4.50037744650638    2.39715529981547   -5.49891711630748
H         5.76692457876705    1.70787035134826   -2.04489947204935
H         5.64857299960868    0.32886337493427   -2.93848747991083
H         3.89757311652367   -0.58758925857983   -1.86807449820724
