37
 energy: -49.851025019581 gnorm: 0.332742076292 xtb: 6.4.1 (79825abcba525fcdf90b791dcacef51065a7a4e7)
C         2.63748313549001   -1.28479693296344    0.51546384490504
C         2.84903286641461    0.21909723151885    0.55534279816830
C         2.94965489049513    0.95297434597494   -0.84650178492025
C         1.30857780755284    0.99214530616403   -1.42391825068588
C         1.02260485862853    2.01404985056427   -2.51212405095926
O         1.95663927508020    2.21905164196116   -3.49843832668797
C         3.20451597432920    2.80636407751173   -3.22575279612543
C         3.36468942138080    3.36981984418397   -1.82738009888459
C         3.33202633498786    2.40811712728918   -0.55289783588256
C         2.30312557096615    3.02720656520341    0.37902885140066
C         1.56217378457969    3.56165226623552    1.30929429045056
C         4.59878539708778    2.47149095966401    0.28478779681624
C         5.68635057064377    2.69022547392050    0.96991078030227
C         4.30759874770681    1.73390561310442   -3.55653780457418
N         5.47807983707487    2.41192454548467   -4.31119917906960
C         4.91306498414061    1.06601721030290   -2.34534957064559
N         3.93602229632417    0.22190400931513   -1.67441011991914
H         3.24506787230647   -1.68615821221970   -0.29301977149241
H         1.59325986863289   -1.45775294898062    0.22552249970093
H         2.83912945912289   -1.75172670687347    1.48944082342181
H         3.79620834574453    0.39983870409962    1.07507777256251
H         2.13331750599722    0.70602986709122    1.22736939811411
H         0.63134602398024    1.09152950004765   -0.57942756947864
H         1.16821682019629   -0.04119054252789   -1.86491814758976
H         0.67073821701547    2.99991651522977   -2.15451163178327
H         0.09218930790594    1.70104129523522   -3.02326426450908
H         3.33222471210171    3.58638905773076   -3.98117447990422
H         2.54598957199031    4.13281132966667   -1.67961232898837
H         4.36841742207727    3.93750222222097   -1.76504932233750
H         1.01320128370740    4.04876685925224    2.08269641203081
H         6.49523584503950    2.86834323752730    1.64481319625126
H         3.93172227941240    0.94678635523622   -4.21457239657328
H         6.16664339740245    1.66446996062276   -4.40040412207268
H         5.21869392145098    2.84024467837798   -5.20312228182664
H         5.40324492387619    1.82005938734880   -1.70092703008040
H         5.71817822542645    0.38557980554570   -2.65524831780535
H         3.42109827672943   -0.30707231474604   -2.40964500891438
