37
 energy: -49.851705376357 gnorm: 0.311501660705 xtb: 6.4.1 (79825abcba525fcdf90b791dcacef51065a7a4e7)
C         2.52293776855656   -1.25599328228727    0.72253098618839
C         3.02044686849152    0.17209966994700    0.57735353520692
C         2.93717971561227    0.87347709504450   -0.84215515937651
C         1.29562059835465    0.87635025528300   -1.41952292773328
C         1.06148134492585    2.04539870946010   -2.36226669483418
O         1.99305779650111    2.05710681667119   -3.37186568005628
C         3.21034731667238    2.73133034402625   -3.17156987077025
C         3.41480025951271    3.33095916579292   -1.78077477365911
C         3.32081184436621    2.33409417890425   -0.53672075746881
C         2.32299651824167    2.98377662780847    0.40809304734755
C         1.32020998578640    3.70953751143024    0.81763648681190
C         4.67694351870074    2.38097112090488    0.14820362629804
C         5.61895936799092    2.71867815152684    0.98402439943673
C         4.37919038909804    1.85083497032112   -3.62068257725838
N         5.56209185841393    2.74757302848070   -4.06323699445307
C         4.85720191336778    0.91847613678866   -2.53355185472136
N         3.82445969419419    0.19089016023114   -1.81149824773672
H         3.12821944347772   -1.91650991472908    0.10507838152675
H         1.46942918783558   -1.25169339192551    0.41514982324770
H         2.57782020105649   -1.58586186538486    1.76918778028040
H         4.09246718078408    0.13614661715901    0.79964420067367
H         2.59565105026476    0.77429643454248    1.38845105645324
H         0.58320244320755    0.87806049495402   -0.59846138051184
H         1.22449827151549   -0.14502611708287   -1.90294511624839
H         0.91429902494926    3.00644644318044   -1.83467359945057
H         0.10473456057872    2.01780947376712   -2.91795203309493
H         3.11529599072045    3.61267867234808   -3.81157048122057
H         2.65957120718988    4.13819194622391   -1.55215919718812
H         4.44796736180920    3.84643939655718   -1.80231952198879
H         0.77848591652091    4.28715912307107    1.53156265597419
H         6.62247722168571    2.87586425139672    1.31532343312123
H         3.92647502827041    1.29488356883512   -4.44519225635364
H         6.37753413977739    2.18403780875414   -4.30458238338837
H         5.28610860736230    3.23126556224698   -4.92122346788350
H         5.50278705916205    1.46483415876634   -1.82021524414132
H         5.35003976633326    0.09721312807142   -3.07195462923640
H         3.21975116899198   -0.40400779728492   -2.41644209540235
