37
 energy: -49.851625304529 gnorm: 0.326549589121 xtb: 6.4.1 (79825abcba525fcdf90b791dcacef51065a7a4e7)
C         2.60536499723883   -1.32792016851142    0.34207827053874
C         2.92480028330926    0.14147566992585    0.55859211651844
C         3.02287529079308    1.02272737746285   -0.75580712527692
C         1.48314954564681    0.90988271835722   -1.55867003002156
C         1.10632174598596    2.13068105726672   -2.38202506535727
O         1.93937380291010    2.52304827899991   -3.40150243628796
C         3.27071152765882    2.87950451111466   -3.12407069819897
C         3.47690002762866    3.49523739200428   -1.72019874400995
C         3.38190009509143    2.46237275970638   -0.50594600297537
C         2.34928359135709    2.98036012823983    0.48187389996254
C         1.20052141514727    3.36341659418357    0.96524620578060
C         4.63865329452435    2.57280055650134    0.34186830481497
C         5.60505713124404    2.49966156466566    1.21407851992047
C         4.24737385009230    1.70910275331228   -3.55859553519612
N         5.21094554297654    2.34414214543428   -4.59179639005328
C         4.94563175089360    1.06146546008171   -2.38699702871736
N         4.08509759961362    0.30117372859098   -1.49327631513754
H         3.31985903846914   -1.72181596792578   -0.37781075641058
H         1.58969432689273   -1.45625878108346   -0.05330039364569
H         2.65951773445122   -1.98619881249684    1.22017423123495
H         3.91101372484570    0.28189341466227    1.01422268709681
H         2.17620665789505    0.58328290611479    1.22596425392390
H         0.69912415507033    0.74184961349489   -0.82467161047117
H         1.61068492917595    0.05447729799270   -2.28941032915109
H         0.92926182362312    2.95925564860853   -1.67086841117254
H         0.16399146419430    1.84909384295455   -2.88960171117717
H         3.45113370165669    3.73094456989138   -3.78581693145771
H         2.67694537814688    4.26594433383738   -1.51934024511886
H         4.44015110290028    4.13200257472421   -1.73739686953840
H         0.61862389334428    3.89098045608664    1.68626905792560
H         6.30897155821761    2.65802310848548    2.00207642703937
H         3.62988740357396    0.91320838441178   -3.98181180578353
H         5.80736552521965    1.61715316172681   -4.98744254160684
H         4.62288520420533    2.75031552868469   -5.32355743806993
H         5.44613007493583    1.79628974667663   -1.72845994980056
H         5.80761645519400    0.48483668778464   -2.74993125836311
H         3.74035473764744   -0.53319195367071   -2.01339102049729
