37
 energy: -49.856789232153 gnorm: 0.323969896904 xtb: 6.4.1 (79825abcba525fcdf90b791dcacef51065a7a4e7)
C         2.71139669763638   -1.32401089722569    0.41761806013968
C         2.79190736948106    0.18739464992317    0.54881478777855
C         2.98366345037402    0.97875339412826   -0.81164454254890
C         1.55463333176038    0.82722760803386   -1.79296558461305
C         1.04260481586813    2.09834692532996   -2.45049411583690
O         1.85774603510163    2.62486026597588   -3.42290882726878
C         3.18940688444310    2.92636480203642   -3.08785069923877
C         3.34799386357275    3.44343640519981   -1.63739308429603
C         3.31308404852906    2.41797135393734   -0.41369102894977
C         2.22028255287726    2.85404086961543    0.54861041334475
C         1.26147243897986    3.41692918526491    1.22969438912135
C         4.64198733214363    2.45790654463142    0.32308109082189
C         5.82168107415680    2.49307549328046    0.87726703542171
C         4.15229909077238    1.82877836665179   -3.53901901226799
N         5.12868750802881    2.41250317630605   -4.59029464150842
C         4.93039539246418    1.17344619456701   -2.42333666069709
N         4.11387576802215    0.35644952546235   -1.53840084265818
H         3.67727544242605   -1.80716171456110    0.28518171707520
H         2.10227639894523   -1.69527759056903   -0.41635766032670
H         2.34240081890905   -1.77107037399991    1.35105026121362
H         3.73437777123759    0.42199002138252    1.05541903735790
H         2.00341642285242    0.63981614593633    1.16083475217092
H         0.81874582980530    0.36445675959327   -1.14028086464295
H         1.80559467559291    0.10077970527535   -2.62438421596670
H         0.78833083004299    2.84184557677584   -1.67191569858205
H         0.12389485750499    1.77493555546687   -2.97612599171186
H         3.36703334346038    3.84697908603326   -3.65028166651986
H         2.56619181445578    4.24812701841770   -1.51281648652572
H         4.37258611377699    3.97515678594598   -1.60418977727291
H         0.51884642930186    3.73693896587515    1.92460632822812
H         6.75048638982556    2.42939046789515    1.40146115214140
H         3.53465779350808    1.04426581347593   -3.98276291545821
H         5.81537979486383    2.92806633161215   -4.03946436729412
H         5.60604430691819    1.65633341831574   -5.08688682263254
H         5.58803624040581    1.81407227827936   -1.80588777627481
H         5.68855868920165    0.54110553657319   -2.90559523689684
H         3.80705536791128   -0.55518542984732   -1.93879563498369
