37
 energy: -49.853283763082 gnorm: 0.318230620648 xtb: 6.4.1 (79825abcba525fcdf90b791dcacef51065a7a4e7)
C         2.86279236196429   -1.46039400045147    0.21758513577308
C         2.86761723930138    0.02995530925500    0.51233406758304
C         3.08739368456745    0.88731763380056   -0.80314941914659
C         1.57244791289197    0.73148808566311   -1.64501317937533
C         1.01379265294217    1.88713258573096   -2.45904719470864
O         1.77413333020695    2.51559338076308   -3.41517530284213
C         3.07322873017403    2.89685110067429   -3.03638348049138
C         3.23286077645543    3.39347326979932   -1.64549884119579
C         3.27362346010888    2.36881494435326   -0.42130207249774
C         2.19317488245583    2.77034179742757    0.56955761009097
C         1.46737969098408    3.57687808504134    1.29257633651850
C         4.54975293939835    2.47567803733912    0.39752988385817
C         5.68283048471448    2.90196763223419    0.88172895658487
C         4.15057099770348    1.86514453747973   -3.56768993805803
N         5.05501686820039    2.60612113272985   -4.58365292748155
C         4.99522778214810    1.20762358950519   -2.50286021500006
N         4.29445606758117    0.40458955211093   -1.51222678399357
H         1.95315335361691   -1.70561867015334   -0.32676547059594
H         2.86818298888536   -1.96496082514211    1.19214414304543
H         3.73936304570193   -1.84622472487874   -0.32100032324589
H         3.67257265451878    0.27544784334127    1.21355693313298
H         1.96245193790087    0.39543292882680    1.01040384809886
H         0.77510892576798    0.60893939877058   -0.91637268097311
H         1.61405143538300   -0.17832600866920   -2.31767397965854
H         0.59485543788051    2.66103347916728   -1.78882419230000
H         0.11800904011538    1.56610684369366   -3.02422500942449
H         3.27510756287279    3.74620218896607   -3.69460690569688
H         2.32880568634108    4.05720154114841   -1.51739757111462
H         4.13028483578857    4.11497426983220   -1.55783660830160
H         0.85123851551019    3.94681618329663    2.08017911256625
H         6.57271733654588    3.05763765473434    1.45215231795595
H         3.62584540234284    1.05762525004869   -4.08385369084615
H         5.54606361399154    3.30598566955055   -4.02703063325743
H         5.73136279948077    1.91473221433651   -4.91652460762300
H         5.62213908879861    1.96676628621215   -1.99806226707228
H         5.66592040569990    0.46591574733017   -2.95814090637075
H         4.14421418701302   -0.57680086015977   -1.82819082480990
