37
 energy: -49.855498225564 gnorm: 0.319505828550 xtb: 6.4.1 (79825abcba525fcdf90b791dcacef51065a7a4e7)
C         2.62924516874824   -1.27722028617875    0.42968649314820
C         3.01230218529839    0.18349275214995    0.59589726084551
C         2.91770938936564    0.99529771194161   -0.76273939266824
C         1.27126283189928    0.98717404174959   -1.32596747322807
C         0.99614878398688    2.05004542943502   -2.37709922668623
O         1.93652495511042    2.06482200250179   -3.37846638504641
C         3.16794644470367    2.71224432240847   -3.17614237079678
C         3.48055771718144    3.33552236287631   -1.84796144554745
C         3.36624065990772    2.43932315412828   -0.53114611186161
C         2.41231791324900    3.16706619558781    0.40202982969584
C         1.28258093065795    3.56421857262037    0.91778158933744
C         4.71819349296543    2.52596504476775    0.15814969280686
C         5.68524413051222    2.70353585504798    1.01448956342553
C         4.32642812294891    1.74606457525328   -3.55144627478206
N         5.52305374277080    2.63019947700035   -3.98230825371707
C         4.82662212145515    0.85984695482904   -2.43606942672085
N         3.70059206489637    0.23201692116068   -1.76139541875619
H         3.16419063419926   -1.68974278457054   -0.42328149230268
H         1.54531832586166   -1.42107692838619    0.33593221883124
H         2.92207604357783   -1.95067355839010    1.24701542153829
H         4.06808491741768    0.22837923968947    0.88441301081120
H         2.30129088451005    0.65508984258056    1.28366955908826
H         0.57964309318037    1.19559130085943   -0.51361964101957
H         1.20176701368331   -0.05797217654163   -1.75585676795029
H         0.91563023034363    3.03078537254317   -1.87183119594631
H         0.06080655876810    1.83552896060031   -2.92848781652033
H         3.20460700170010    3.46370356939338   -3.96947421528499
H         2.92778450173176    4.31366410230159   -1.73868531248334
H         4.58433245364550    3.66578211034413   -1.92688000905572
H         0.58643364067791    3.93577777820766    1.63480668973300
H         6.61309316981381    2.86635845369308    1.51857245205918
H         4.00698168041552    1.14747815175711   -4.40789103876477
H         6.37029628871736    2.06248968378941   -4.00782910654382
H         5.36559123952849    2.89188073020544   -4.95852262182094
H         5.47125716719749    1.49841367549655   -1.80297023232631
H         5.40418974101003    0.03541068047364   -2.87647844224772
H         3.07863008262298    0.10286782753453   -2.58723852953053
