37
 energy: -49.855943313949 gnorm: 0.321054701254 xtb: 6.4.1 (79825abcba525fcdf90b791dcacef51065a7a4e7)
C         2.45962042771605   -1.23370279161413    0.56780274659487
C         2.85325790390236    0.23330009073576    0.59932032862514
C         3.03311072769508    1.01033294075898   -0.77098677478698
C         1.54504415096710    0.88308587357778   -1.66404006449984
C         1.07874190409180    2.13616047271352   -2.38696990386462
O         1.88158945418040    2.46823796548404   -3.45112319461063
C         3.21736191855973    2.80571866928836   -3.17128708181178
C         3.53697784130482    3.37915808421920   -1.83427844244902
C         3.42065031344984    2.47821075862915   -0.52088366084610
C         2.41519091607389    3.13455864879953    0.41113277951398
C         1.44782454326485    3.61143397269261    1.14381811868586
C         4.61180464502455    2.37955237845135    0.41817433286750
C         5.53602746402644    2.84937375411652    1.20881733932692
C         4.20517061985919    1.59675674494661   -3.58705488650368
N         5.20362001114464    2.25846058715696   -4.56914260234125
C         4.94750354899701    0.95095088358985   -2.44183969635559
N         4.07676545412480    0.25807283123676   -1.50427133561452
H         3.29913366033419   -1.84162828236052    0.23683450519617
H         1.62237876401093   -1.42886319466629   -0.11434152831499
H         2.12253339913568   -1.58751751471467    1.55192839158799
H         3.78713662611047    0.36015674807081    1.15763138245172
H         2.15182724963222    0.87795318455349    1.14097431929758
H         0.78166788420610    0.55213863604626   -0.96445789018716
H         1.72658821549088    0.09078396940294   -2.45224342485757
H         1.00949012589946    2.97999842971020   -1.67509101679331
H         0.08285088559985    2.02511433950983   -2.85684393613562
H         3.42593918525032    3.61810587534676   -3.87266641073833
H         2.85247107958966    4.26246564154895   -1.67465697074577
H         4.63944091660449    3.72258750003028   -1.85008068490031
H         0.76859177328472    4.11934068252980    1.78994182932415
H         6.36739386246705    2.63322123026678    1.84413035846947
H         3.58927516811787    0.91306164008176   -4.17619253245043
H         5.88187223175302    1.57272009317577   -4.90155733583518
H         4.67276205741418    2.58481245914408   -5.38028395827287
H         5.55973536684224    1.67007829384859   -1.86550267874584
H         5.69202645933625    0.24145073009907   -2.82853698715678
H         3.71290024445876   -0.62691660772299   -1.91649559673447
