37
 energy: -49.853264450050 gnorm: 0.328323682764 xtb: 6.4.1 (79825abcba525fcdf90b791dcacef51065a7a4e7)
C         2.64127690974949   -1.40571323278074    0.38605952125873
C         2.82069598504153    0.08968081140530    0.58517437653517
C         2.89731626133231    0.96953954020333   -0.73158171198423
C         1.28908820168484    0.90956589615492   -1.39346070506673
C         1.07595170750207    1.88638739223117   -2.53829863633282
O         2.02351348291837    1.98610195870023   -3.52796805747933
C         3.16822885583222    2.74899721309249   -3.23795581994298
C         3.25759393018451    3.35559074284924   -1.80185487149480
C         3.25178740675950    2.43366444337310   -0.49791385927090
C         2.30648231671454    3.12521311250273    0.47087636425825
C         1.60887744143104    3.74408246383753    1.38213024083581
C         4.59816480502954    2.39504838903284    0.20649270099294
C         5.79557181199028    2.55196352010894    0.69805177669981
C         4.38295641331952    1.92909711540369   -3.58838812208986
N         5.57132267228423    2.83669293954710   -3.99249812930097
C         4.81968136123619    1.06839157831619   -2.42731167398962
N         3.87807369525239    0.30639755321850   -1.62106148608218
H         3.36472679557724   -1.85432639862316   -0.29162944649486
H         1.65962928448228   -1.64003536275887   -0.04503568562354
H         2.64158166568282   -1.94471696690558    1.34355139590313
H         3.82131365552431    0.21445674709919    1.01310960010131
H         2.00968425664137    0.51006080437412    1.19057693490831
H         0.60737412057902    1.17370459438549   -0.58898492725821
H         1.07899866622218   -0.17103320883947   -1.65828716415116
H         0.81990413233259    2.87402256101806   -2.11092728845093
H         0.20997231016111    1.49384114824046   -3.10477802729213
H         3.20385241658918    3.67674611029870   -3.81538404703787
H         2.38028758443493    4.04325834193799   -1.62378856262618
H         4.20202566536606    4.02001263926828   -1.78734484726670
H         0.88217630838675    4.34569374254911    1.87889132207362
H         6.80422993053491    2.34828249106226    0.98551900361218
H         4.07611398119752    1.30006956043473   -4.42744796901422
H         6.40464070767439    2.27875473144593   -4.17971902217734
H         5.38229168474053    3.40545073320274   -4.82138163655560
H         5.41456937636776    1.70116086372435   -1.74185732119453
H         5.51346127946298    0.28184713782229   -2.75481265836102
H         3.29458463002599   -0.34245987116510   -2.19032205291987
