37
 energy: -49.644102077582 gnorm: 0.284207981190 xtb: 6.4.1 (79825abcba525fcdf90b791dcacef51065a7a4e7)
C         2.80088239040033   -1.69236402636095   -0.48449638384628
C         2.69189370150427   -0.21507505819930   -0.14718340044304
C         3.04966861064401    1.03449483396311   -1.05517065061231
C         1.47870610057116    1.45180127120116   -1.67646789368234
C         1.24082854577681    2.81577857650955   -2.30355757753608
O         2.26701230811998    3.38904523157328   -3.01459492234427
C         3.61351637671867    3.03903398727517   -2.81233648671600
C         4.18222922291974    3.02480642347162   -1.20392507460711
C         3.39664907078889    2.16905495934008   -0.10811604830616
C         2.59418637418504    2.74175329778326    1.04880488338306
C         1.76520260022941    2.91886402501890    2.03948819759898
C         4.37758478716723    2.39908946455365    1.02997941605645
C         5.16828350830733    3.21854834429256    1.66505352109379
C         3.74757305381460    1.71187998814757   -3.70536005584429
N         3.80055266502200    1.95572821201357   -5.23407868541675
C         4.79887969598818    1.02248393789013   -2.86922092207082
N         4.12595068143576    0.32498097377404   -1.78388437775402
H         2.06627645411473   -2.03012216767409   -1.21262371030240
H         2.70830122781494   -2.35053183368301    0.38878814263296
H         3.78357221763134   -1.82514198276315   -0.95778966107402
H         3.38511646904346   -0.07685185940650    0.68963787942067
H         1.85750333718785   -0.03056123156033    0.53890623514013
H         0.66554250280041    1.35693339616667   -0.96131080036065
H         1.44866640023391    0.49596362459845   -2.28263379737552
H         1.00367240040722    3.49295834455615   -1.46164642925068
H         0.37706911808878    3.11909594170879   -2.92551416696170
H         4.00380720694083    4.03895473658211   -3.02028353480120
H         4.28972927112743    4.13728081333429   -1.04547879379107
H         5.27192397294728    2.72987455919541   -0.96061692208100
H         2.01681170696473    3.21793425259059    3.03148222079313
H         6.21444525974791    3.43497849659117    1.67982584416365
H         2.81289443452802    1.14616509713225   -3.69150687079984
H         3.60445885750880    1.00719279454420   -5.55438078567684
H         4.74426960821368    2.14448207396927   -5.58054126856840
H         5.52048578922286    1.84785878912782   -2.72030016883192
H         5.52252789221165    0.33692138291575   -3.33136472924103
H         3.85316739251992   -0.58586948385215   -2.20988175005287
