37
 energy: -49.848931860030 gnorm: 0.320519729193 xtb: 6.4.1 (79825abcba525fcdf90b791dcacef51065a7a4e7)
C         2.82829731915567   -1.42296535832066    0.35690677924578
C         3.04987642194414    0.06535952225743    0.56627016744753
C         3.16173927459756    0.85463929132942   -0.80427453951788
C         1.61566804395322    0.65553158821018   -1.57764250036974
C         1.08798967430408    1.95981716954191   -2.15266941212346
O         1.69556617410294    2.40519106423979   -3.30147521238608
C         2.98954527018753    2.93480691202771   -3.15445581004936
C         3.42981509053892    3.41981664206092   -1.77945252221423
C         3.35406860273342    2.38424777100471   -0.56614975218344
C         2.30028283739310    2.88464251249315    0.40829193430303
C         1.23723652035425    3.37139115540009    0.98539138003007
C         4.59317633505889    2.59917900480770    0.28756485646464
C         5.32503666729320    2.72186135841751    1.35964966324871
C         4.05318111541288    1.87462393174986   -3.63001942730305
N         4.96137832068049    2.70530465031161   -4.57044317400421
C         4.91624073524349    1.17111762807928   -2.61028995686353
N         4.33339120155960    0.35254573916227   -1.55789946869073
H         2.01228746721142   -1.54941117429350   -0.35163766110598
H         2.60808670164212   -1.85773203242625    1.34020084570290
H         3.72661889254399   -1.93275729671652   -0.01785492974748
H         3.97826639601432    0.11093768378693    1.14588038061068
H         2.19566932689501    0.49805847912374    1.09925559979198
H         0.98223192671230    0.29959309733045   -0.76909374290260
H         1.73561562766027   -0.03792631162238   -2.46460011497387
H         1.15979757413367    2.78419117813674   -1.41858428379052
H         0.02216804297569    1.91648451133090   -2.44772584976380
H         3.09882035092838    3.78083039721999   -3.83835173122879
H         2.86878753258331    4.35918756569691   -1.50179965238301
H         4.51092700376938    3.78329187367243   -1.96028697438288
H         0.41582225299484    3.71264471640639    1.57329181800548
H         6.25254250738666    2.82042755430366    1.88073723127219
H         3.52866010932924    1.28219082864385   -4.38351136630387
H         5.45263559414788    3.41931860400019   -4.03228332780311
H         5.71141972805392    2.16065946032385   -5.00295388474389
H         5.58584867319764    1.92667902540729   -2.15764376731914
H         5.54152228023904    0.46242430945241   -3.17066161566235
H         4.15136605065685   -0.61891452797453   -1.88754296238159
