37
 energy: -49.858957154631 gnorm: 0.327632108689 xtb: 6.4.1 (79825abcba525fcdf90b791dcacef51065a7a4e7)
C         2.95897276819082   -1.47175014368672    0.37022667957027
C         2.87159512576153    0.03912177799386    0.50316448993155
C         2.98390597887962    0.89319536121607   -0.82793025978435
C         1.46009488522177    0.73618401210732   -1.65341515872376
C         0.97152899172853    1.97302522306536   -2.38947797927395
O         1.77962215976811    2.30679765946174   -3.44912097039007
C         3.04468190099341    2.84070611453297   -3.14736748686797
C         3.16206959119585    3.39127132041155   -1.69647103038340
C         3.26706162198919    2.33427493033843   -0.50400327870945
C         2.26089053000817    2.80490141071955    0.53355458630601
C         1.53260854146741    3.51422053221810    1.34995354791591
C         4.61356137697561    2.48158352996904    0.18567096813224
C         5.74592317024647    2.75558286046157    0.77109169962424
C         4.19221718603291    1.92792120633361   -3.55762482973642
N         5.20668313013494    2.80522073911284   -4.33251438407546
C         4.90066355868977    1.24422932528875   -2.41293693825212
N         4.08247120376225    0.32194550395588   -1.64011543255248
H         2.34270569842782   -1.76397850205585   -0.47754294254086
H         2.45565889989940   -1.85261467185638    1.26800135027193
H         3.98029809923712   -1.84811756394187    0.22003366570386
H         3.69017630736702    0.28443207213864    1.18849727104927
H         1.94895817139663    0.36973048966391    0.99348127525882
H         0.75828794487334    0.39590346120323   -0.89620925376386
H         1.67011607185828   -0.08821011365417   -2.40056341618735
H         0.81520006424780    2.77430725743529   -1.64306105543820
H        -0.01606468882425    1.75490431532677   -2.83891514107338
H         3.12320891815057    3.74091834096835   -3.76288504693349
H         2.27397454065522    4.06785957348793   -1.52980885444464
H         4.11076539213699    4.04880421239393   -1.73175672120962
H         0.84660707227649    3.89042813047531    2.07429608422406
H         6.75080278157654    2.92946158881400    1.08967881400020
H         3.85037449848906    1.16707489482003   -4.26339096452601
H         5.73853732022592    3.31632815540545   -3.62776905107183
H         5.85692925345129    2.19120675574588   -4.82893438572535
H         5.32114642785118    1.98482009012581   -1.70663964627902
H         5.77068632050482    0.69130506561226   -2.79316684706179
H         3.86324872010663   -0.55471750153682   -2.15870632797931
