37
 energy: -49.852138876832 gnorm: 0.326710293653 xtb: 6.4.1 (79825abcba525fcdf90b791dcacef51065a7a4e7)
C         2.59443180449081   -1.38083511918924    0.23654597813418
C         2.78786398308699    0.09150843645878    0.55721671888405
C         3.03437574630374    0.95082999583325   -0.75223624102193
C         1.55189500359983    0.86493262231564   -1.65940249921070
C         1.08926730060920    2.14343438435490   -2.33886562703488
O         1.90273394139718    2.52492290413833   -3.37809630871372
C         3.23317649662893    2.85606101912229   -3.06703408324542
C         3.60486657322087    3.39318559254814   -1.75658068238012
C         3.34912758427410    2.45996471515928   -0.48617115417724
C         2.20523125989634    2.97611041988511    0.37143635748705
C         1.46117362949496    3.69923977092346    1.16105505401071
C         4.56982178091439    2.54175825643282    0.41584186401476
C         5.57756815913957    3.05874075292829    1.06176183627524
C         4.12051792811420    1.61910352090252   -3.52134834094749
N         5.13891518318232    2.32941803262454   -4.44739897059846
C         4.90606952144308    0.92003861298689   -2.43790098700450
N         4.15124588928708    0.22889289612931   -1.40356151719286
H         3.49041515171329   -1.87170679560610   -0.13782641090354
H         1.72053501788767   -1.57512601177096   -0.39822756700360
H         2.41021485534341   -1.91546128225732    1.17864724110704
H         3.65754987862123    0.25704073288844    1.20233594361509
H         1.91130546811563    0.50456714575754    1.06907538323613
H         0.77724935019647    0.53734028710429   -0.97071389692382
H         1.76254140455204    0.06934212693800   -2.43698140162284
H         1.00208102596209    2.93473020274292   -1.57082960075215
H         0.09349547910567    2.03815339208048   -2.81031675156515
H         3.51499205900627    3.63357648528954   -3.78219847027037
H         3.10310106010775    4.36864400072759   -1.49017304773604
H         4.74364293605111    3.58193598329114   -1.79093170488668
H         0.67720115382879    4.16740750476382    1.71151703729417
H         6.39249736795104    3.36861341168670    1.67932472721423
H         3.39315135460183    1.00326042364513   -4.05569328297384
H         5.85384690755592    1.65317769229545   -4.71635488983136
H         4.65892544933591    2.47734783159880   -5.33846161748276
H         5.58278999544849    1.70399029384103   -2.04853541199381
H         5.61829298477343    0.24346316505651   -2.93006257438685
H         3.93267916457674   -0.75174698050855   -1.67943659499337
