37
 energy: -49.853470032938 gnorm: 0.319585360506 xtb: 6.4.1 (79825abcba525fcdf90b791dcacef51065a7a4e7)
C         2.60060285177416   -1.31358429488238    0.48325449785222
C         2.95833787500589    0.16023708917401    0.57223459945158
C         2.90313589993114    0.94763722402821   -0.80283718608743
C         1.25712131336671    1.01098977066790   -1.36381897428767
C         1.03395868007617    2.11642996120634   -2.38286839080129
O         1.98669888511704    2.12195898981070   -3.37257410847982
C         3.23699320447592    2.72921468378164   -3.16163765083069
C         3.45908554244507    3.32125893771359   -1.81900287132410
C         3.34045607325893    2.38623258681779   -0.52985710585816
C         2.39354247595016    3.11590178129701    0.40893643959171
C         1.39150144084650    3.72603298829974    0.97787337876022
C         4.67516543111407    2.36891161662273    0.19723501993902
C         5.58204923392572    2.76907671714064    1.04426863669854
C         4.37519495825065    1.72258371049588   -3.62889095997820
N         5.56481882631270    2.56748314659845   -4.14868845780329
C         4.85422820861904    0.88503398458303   -2.46756463994742
N         3.76859466534590    0.22231676790051   -1.76080799393337
H         3.33130886646201   -1.89089319307164   -0.07948789704449
H         1.57207645601740   -1.52958148486476    0.16724711614733
H         2.62303598707724   -1.70138335287996    1.51107960618117
H         3.95706312870168    0.21867321919399    1.01840317569376
H         2.16007144088117    0.54123220240334    1.21921608569869
H         0.76942012365774    1.29917336628240   -0.43603538849441
H         0.93685354313506    0.00526647641767   -1.77359245159406
H         0.95212334485949    3.03997398142771   -1.77954486488603
H         0.05870660855424    1.88015413187688   -2.84973978645676
H         3.22151534238377    3.56893579816072   -3.86166572001197
H         2.72294416442690    4.17461638990700   -1.75467796438036
H         4.49759411436755    3.82018780756882   -1.74033751187106
H         0.70573279134266    4.27323427575125    1.58375649916397
H         6.59288535194601    2.75088386651280    1.38980300683698
H         3.97107773025560    1.07333008636584   -4.40928084160187
H         6.26585590057035    1.97286339121549   -4.59111361747558
H         5.26510663164474    3.19132736613137   -4.90185311497256
H         5.46205263117777    1.52586993312008   -1.80122002400969
H         5.57104937648582    0.14136128480675   -2.84220841128024
H         3.24483649608372   -0.38046499943182   -2.43003483169940
