37
 energy: -49.857334654872 gnorm: 0.326496448381 xtb: 6.4.1 (79825abcba525fcdf90b791dcacef51065a7a4e7)
C         2.63221930885914   -1.34982199998486    0.37858058567963
C         3.01716182482031    0.11489985488401    0.49879050556713
C         2.90274964007192    0.93943227713458   -0.85062595449325
C         1.23632036387502    0.86838925113980   -1.34665467062526
C         0.96216157849952    1.84722950783847   -2.47668564432407
O         1.98097414888532    1.96019664134616   -3.39130100027585
C         3.10249901767265    2.77243074130395   -3.14851037515745
C         3.29333745188012    3.41259637010963   -1.77335587405756
C         3.32528916594819    2.37915563433347   -0.55630067206851
C         2.29571671645027    2.86582282048176    0.45044234647127
C         1.52971275956347    3.60051055502127    1.20774506753565
C         4.63170422170707    2.45801958757182    0.21666255463108
C         5.76918584259238    2.62982915569798    0.83038345281555
C         4.39105089678291    1.97124300366913   -3.58815942925600
N         5.50966521526019    2.94996214751273   -4.02411847246906
C         4.87235894465713    1.07234017839958   -2.47462564268117
N         3.75301594520577    0.33860693563574   -1.90365626127957
H         3.36309324217927   -1.93914234420966   -0.17134729355961
H         1.61593523017479   -1.48364045380629   -0.01339044771072
H         2.69404788814416   -1.78695059280120    1.38476726240312
H         4.06680117819149    0.17022037577954    0.80722231326779
H         2.38441476375784    0.63338960778827    1.22801691254205
H         0.62453183720039    1.14482603561299   -0.49167974690333
H         1.21422547702961   -0.22288645146171   -1.64764345607038
H         0.79809440450776    2.84643945756128   -2.03138653678679
H         0.08823181131992    1.50806522536485   -3.06501048844669
H         3.00832117347975    3.56870446017707   -3.89180648714304
H         2.42190331735804    4.11222229122609   -1.61402325622089
H         4.29640445268032    3.98481682726642   -1.76713917293512
H         0.81608295558917    3.93334658348467    1.92660177917373
H         6.70757089149354    2.55520662935523    1.33573438903337
H         4.09200663082800    1.37665507229664   -4.45469684256042
H         6.14789966561748    3.01195067307961   -3.23065778410888
H         5.95935540633145    2.62080834710458   -4.88184950165509
H         5.36834532812144    1.68445207429308   -1.69780331859202
H         5.61053779757361    0.32826409377656   -2.80429576261757
H         3.17407087502529   -0.07887386303778   -2.66264600286513
