37
 energy: -49.852991354930 gnorm: 0.325780213455 xtb: 6.4.1 (79825abcba525fcdf90b791dcacef51065a7a4e7)
C         2.65092748738614   -1.34803347401536    0.25875449058234
C         2.92814065967399    0.11481906418656    0.56084154120751
C         3.06683072494981    1.00904445207384   -0.74107806748352
C         1.51375756179569    0.85687474163384   -1.51106914562319
C         0.97920599096464    1.95352833370239   -2.41763784480300
O         1.82802458607857    2.39969182618023   -3.40135884524834
C         3.12030485982001    2.85216885269425   -3.08235134274178
C         3.38546214522596    3.40504406160776   -1.69965742997395
C         3.29042996415059    2.46950070443240   -0.40893224351686
C         2.23574177337611    3.02827863323436    0.53223503756754
C         1.16528426077783    3.39640053959417    1.17926089768121
C         4.61100529784616    2.50542309983337    0.34286714669084
C         5.83749533216259    2.48052417216528    0.78461196949021
C         4.22158226275960    1.87449035927821   -3.60635391706753
N         5.22098001089166    2.63827522255887   -4.51028215926252
C         4.95929986495703    1.18487228131872   -2.48392758718071
N         4.16041543232006    0.41427905857147   -1.54304023749621
H         3.34557610274708   -1.74854806760012   -0.47673664355421
H         1.60962165857472   -1.44879212372494   -0.07277509117910
H         2.71932422146787   -2.01826706173610    1.12675485518379
H         3.86763463102179    0.14014368424873    1.12355199392699
H         2.13066346442321    0.43385072815078    1.24144461218345
H         0.79156370315656    0.57137490704459   -0.75040463852972
H         1.69554132458255   -0.07357043602404   -2.13009380347394
H         0.56570328828629    2.81501705624290   -1.86042823238230
H         0.08654802987880    1.52257988203219   -2.90993548564767
H         3.30622492717111    3.69516062500441   -3.75332750637897
H         2.67821995263385    4.28425112332082   -1.66703565877892
H         4.46217497707942    3.81849807588119   -1.64166120104508
H         0.37234381747039    3.71467339857581    1.81703052105414
H         6.72402030885565    2.24640917685063    1.33304448799695
H         3.71672255814714    1.10280044862624   -4.19240914505083
H         5.61812453381955    3.41126879440837   -3.97593880458778
H         5.99851100815041    2.01923981909835   -4.75216380028053
H         5.49141697930545    1.92234761324976   -1.85375467417065
H         5.68179598184946    0.44747737953184   -2.86007615686519
H         3.77420732908783   -0.42262476135142   -2.02880595939991
