37
 energy: -49.855933167162 gnorm: 0.335734250026 xtb: 6.4.1 (79825abcba525fcdf90b791dcacef51065a7a4e7)
C         2.57085367669598   -1.31489163956540    0.50788954106499
C         2.88991850524214    0.16981924451362    0.55116197371525
C         3.07659420568456    0.97722194331160   -0.80054868721020
C         1.53104464194799    0.87255470073903   -1.59326518487013
C         1.13403273505513    2.14771611408183   -2.31894156240840
O         1.92790964364853    2.48750138922330   -3.38738308956301
C         3.24637530959870    2.91899933117164   -3.15946344169482
C         3.59068197314152    3.36029609826459   -1.72870436704023
C         3.29871441905808    2.39803902811669   -0.48811567147641
C         2.10673230521335    2.88560164332238    0.31926104070081
C         1.27695864748658    3.42153224375845    1.17031311011136
C         4.50776156407162    2.63845705209745    0.40116280644930
C         5.54596749082155    2.49872022676957    1.17746065825953
C         4.19602720252678    1.78279333034611   -3.64772952501345
N         5.30938541895635    2.43569303950702   -4.50412014562501
C         4.91826993142281    1.06758290004792   -2.53127052397420
N         4.13163426001338    0.29347379574789   -1.58297802081667
H         3.36875329803359   -1.86520385458364    0.01351265330177
H         1.62614898263337   -1.52068975773481   -0.01130423177486
H         2.51523109730874   -1.70239407592969    1.53456563349043
H         3.85364780329687    0.27031459415604    1.06210212377681
H         2.18721871409957    0.75204471988223    1.15795528212503
H         0.82787277146701    0.57053015658451   -0.82124503445529
H         1.63278575202310    0.05120418972056   -2.36592110870065
H         0.93180012860672    3.00225268225648   -1.64626104172988
H         0.17443496839517    1.93352969516411   -2.82708334856784
H         3.39073483695888    3.76609808927504   -3.83547707519331
H         3.02019520106621    4.33055943208684   -1.64271210837615
H         4.69942773770650    3.66276751384230   -1.61551345774855
H         0.55330776168520    3.74510105722450    1.88335930098389
H         6.37533533306289    2.75489135811611    1.80038919655154
H         3.65206249306672    1.13856495939222   -4.34265511146445
H         5.76877101371142    1.68425408086465   -5.01896965923401
H         4.84743339101786    2.97283295691032   -5.24191892829743
H         5.48393920403711    1.77818071626493   -1.89944348555175
H         5.65296645942011    0.32554725329759   -2.87309465605947
H         3.69237120537760   -0.56055328748373   -1.98698142341563
