37
 energy: -49.857022512163 gnorm: 0.322497448922 xtb: 6.4.1 (79825abcba525fcdf90b791dcacef51065a7a4e7)
C         2.81546423714958   -1.31882118834290    0.28604783516749
C         2.96450378922825    0.16596158047664    0.57108926869688
C         3.06059439999374    0.98484077879025   -0.78318991190207
C         1.57148495990127    0.75508555054172   -1.65373212318080
C         1.10662465571815    2.03021570105927   -2.33799032434715
O         1.79970445040818    2.50173818521955   -3.42636931218528
C         3.11603979453089    2.92896946956521   -3.17893398015770
C         3.38367887922300    3.45109490199105   -1.75234160859011
C         3.23293868242229    2.45462751975080   -0.51356229267359
C         2.12818595321075    2.99865586234073    0.37747669118654
C         1.39039617867608    3.17941249751976    1.43720724186685
C         4.42920045955870    2.59040097473107    0.41430368375926
C         5.57492069421691    2.67830353284087    1.03044865650387
C         4.09524192066124    1.79856019665124   -3.59034817543665
N         5.07160280920301    2.41876834332240   -4.62054753162146
C         4.90582760013541    1.14360800245973   -2.49781456060611
N         4.22433288536896    0.37557459579290   -1.46680103192087
H         3.71964683516261   -1.70025885031753   -0.18390427552648
H         1.93435986211159   -1.57430733467937   -0.31625101713451
H         2.74542978631451   -1.84523800935453    1.24797107250085
H         3.86923530199665    0.36280033362433    1.15645129957485
H         2.13095378480004    0.48236501400741    1.20831362250853
H         0.78867242405966    0.33098691939979   -1.03000982755940
H         1.75028456922916   -0.06026394112649   -2.41871643550820
H         1.05879848815273    2.84860322261820   -1.59530305601832
H         0.07718069297611    1.86894352845954   -2.71101603997493
H         3.27318867559107    3.73020353438556   -3.90607812978876
H         2.69703771582062    4.31175233377836   -1.50323628384805
H         4.43082928468273    3.93701911385514   -1.72116479840795
H         0.70680487398577    3.73135763174231    2.04124515138546
H         6.53345559604006    2.71490043992169    1.50096546807854
H         3.48249321590012    1.01552564745940   -4.04338822813815
H         5.70553189912434    2.96882119693990   -4.04059803203396
H         5.68004756306114    1.76578611140329   -5.12022262304508
H         5.52129540513841    1.89274998941555   -1.96478355473683
H         5.59464458710925    0.48079151444138   -3.03952028164127
H         3.92018578104192   -0.50734027219238   -1.92884963776010
