37
 energy: -49.852419988478 gnorm: 0.326339769814 xtb: 6.4.1 (79825abcba525fcdf90b791dcacef51065a7a4e7)
C         2.51199138324255   -1.31038191645855    0.50077554589561
C         2.61021789034111    0.20349149447820    0.58189352399800
C         3.01163643346114    0.89963881113569   -0.78489494264568
C         1.51698360948943    0.86748841304231   -1.67543265586606
C         1.10894864863350    2.16072896770576   -2.36194385567262
O         1.90076509786026    2.56856375085312   -3.40786898512092
C         3.25410490176103    2.83414823542403   -3.13505804551506
C         3.54331508656887    3.36560197333718   -1.80360782739667
C         3.37216080322927    2.39137621885605   -0.54987960991495
C         2.33496364054631    3.04308886725026    0.35005848731087
C         1.69357259112669    3.83695403383298    1.16149621718140
C         4.60237649467292    2.49304002172618    0.33705094530264
C         5.67158300934989    2.83351343904467    1.00106270743078
C         4.17750982547142    1.63172889826670   -3.56096251777726
N         5.32346327163824    2.20315776279395   -4.43246076525823
C         4.88700468864173    1.00173264805003   -2.38649966872289
N         4.12761272258074    0.18814200068661   -1.44911321869345
H         3.49638619122902   -1.75812920600417    0.38083775552776
H         1.91486776704720   -1.62430221271127   -0.36483373820543
H         2.14195942003092   -1.67775937608091    1.46794975802587
H         3.30651019722516    0.48953579528515    1.37768809135529
H         1.67115508250752    0.67357455355168    0.89518983774692
H         0.69212461970944    0.67282308571981   -0.99469946688833
H         1.48951308268943    0.01522830898736   -2.42032404198526
H         0.93899914978209    2.98447802991938   -1.64348404009984
H         0.14045774935717    1.89795538982499   -2.82872774076107
H         3.41379718225217    3.60678532241948   -3.89198652241567
H         2.91417173383159    4.28991215276727   -1.64839797251619
H         4.63039133975071    3.74937548569590   -1.73577404835129
H         0.91477694508075    4.11803989153765    1.83326283128355
H         6.59093004425053    2.92907157684835    1.53695846336790
H         3.53389645165100    0.86976724212770   -4.00708540373518
H         5.70688611407066    1.33820994121339   -4.81405982807064
H         4.84585600067758    2.61107388738977   -5.23977838597177
H         5.43019551462680    1.80770167913976   -1.85782771344053
H         5.59805500917167    0.32133580464223   -2.87507638089640
H         3.73646868628510   -0.65025293357449   -1.92831392443191
