37
 energy: -49.853105680727 gnorm: 0.321104862584 xtb: 6.4.1 (79825abcba525fcdf90b791dcacef51065a7a4e7)
C         2.58078374006567   -1.28260900544058    0.47598029603331
C         2.89209215773687    0.19983147612153    0.59216362187591
C         2.95735436855692    0.93100384951829   -0.81318204739554
C         1.31807731452253    0.92270383277187   -1.39694568194955
C         1.10648730122414    2.09064349281725   -2.34637072161277
O         1.98659511144211    1.98094080334597   -3.39548341263208
C         3.19839688023814    2.66852023544530   -3.20770548587663
C         3.44771662871958    3.32489150862510   -1.88988005167594
C         3.31302858739420    2.45744079684827   -0.55585140187456
C         2.38492496419302    3.03338116873927    0.50117846031847
C         1.50667164791196    3.73823064788211    1.15836482502138
C         4.60156107483670    2.55823562612067    0.24410886888758
C         5.52295725593171    2.56245163014576    1.16663129124223
C         4.33355522020257    1.75815658010961   -3.65305450508684
N         5.45640009335410    2.65340616888052   -4.23356893901506
C         4.88594350882481    0.95069558998333   -2.50304791901508
N         3.87291092826310    0.23277038818648   -1.74433344591543
H         3.19316349663114   -1.79883613447573   -0.26049538711105
H         1.53725051588290   -1.35508667933491    0.14406555550193
H         2.72145583858935   -1.73045366463515    1.46944007387858
H         3.90887378772443    0.33513484874385    0.97658712065657
H         2.16127445635118    0.70651165762560    1.23259496147796
H         0.56543254386419    0.99392236865357   -0.61583212639812
H         1.07847245460805   -0.01975264067358   -1.97688567779659
H         1.14863134169266    3.06319679867853   -1.82101959764358
H         0.08880145539623    2.00397836230438   -2.77265284064456
H         3.17275589979368    3.47874115735965   -3.94139139252177
H         2.75361853672492    4.20891906647047   -1.78507607982545
H         4.49416713499624    3.81263740131375   -1.91564011175769
H         0.76313779026655    4.29206928398750    1.68488394803797
H         6.50862842237644    2.67998322660886    1.56179364519266
H         3.90667604188234    1.02863545719281   -4.34545790492180
H         6.35956534525297    2.18177575799712   -4.18235431041081
H         5.20785510135409    2.88572625275743   -5.19820295058121
H         5.39671399007441    1.62347463883442   -1.78847234166577
H         5.65659821747522    0.23022942938642   -2.81006495111169
H         3.30851760587074   -0.32224914544468   -2.42178937382605
