37
 energy: -49.856894571597 gnorm: 0.322333269693 xtb: 6.4.1 (79825abcba525fcdf90b791dcacef51065a7a4e7)
C         2.48803619213546   -1.30260847769214    0.49626502597590
C         2.93864632960597    0.14821155252374    0.50689618170687
C         2.85321841552618    0.92787315723041   -0.87103650883219
C         1.18080213350490    1.00421647697421   -1.34566647888027
C         0.99560404178932    1.92653362205591   -2.53952327093736
O         2.07252000501594    1.85592550387856   -3.38953996368805
C         3.20668138198742    2.66365927001607   -3.19528835852034
C         3.38465495720472    3.35141664920087   -1.83593006624423
C         3.27535315966191    2.38286986710001   -0.57093431142969
C         2.27862955638111    2.96307832661799    0.41916468982436
C         1.76387883112318    3.75212488763696    1.32053737073743
C         4.63602083498836    2.50169685461126    0.09605560875607
C         5.72623790638452    2.89153680015946    0.69562863571832
C         4.47026783023250    1.79547496469602   -3.50504949276291
N         5.65261945473095    2.74433845342391   -3.82277918792971
C         4.80454835290718    0.84918756062156   -2.37702560067675
N         3.61088142401783    0.17150824260508   -1.89410815300836
H         2.81227442841079   -1.78181701243756   -0.42521454148275
H         1.39677927299483   -1.34170630553737    0.60586290218009
H         2.85496915467642   -1.79680056632786    1.40645741707279
H         3.98980520789187    0.23014722288779    0.80402388269205
H         2.40086749898708    0.72986231748093    1.26415963436159
H         0.69808637266860    1.36416390214473   -0.44062064428652
H         0.92255800060005   -0.04784771179484   -1.67496270204765
H         0.81037308884714    2.95770565874883   -2.18455343956954
H         0.11010775829866    1.60083023928030   -3.11807785699045
H         3.21118711921281    3.39986850169071   -4.00361136161078
H         2.73445508628766    4.26397423319907   -1.69903761642658
H         4.44640563139493    3.80525854303313   -1.85413297244592
H         1.13503461848643    4.37206651327708    1.91805690914560
H         6.68753528731743    3.05632159207445    1.13182570514215
H         4.24999442524790    1.15922552291655   -4.36558167965809
H         6.35239920340826    2.04536191724236   -4.07279070787839
H         5.36548439429572    3.36340318182808   -4.58473609603677
H         5.20821335816080    1.40553563046422   -1.51003783975062
H         5.54903582550989    0.12544285194362   -2.73643014485402
H         3.02382148673836   -0.04121715164792   -2.72815945602195
