37
 energy: -49.855863124567 gnorm: 0.323026358155 xtb: 6.4.1 (79825abcba525fcdf90b791dcacef51065a7a4e7)
C         2.78980330688818   -1.39529365268394    0.47732383102937
C         2.95429707786865    0.11456815673599    0.51338479192612
C         2.99219100604176    0.90927754388798   -0.85806323318891
C         1.40459986064936    0.75527362203934   -1.55370342581149
C         0.98301232134706    1.94953210990880   -2.39410327073275
O         1.86537251809698    2.30357813410370   -3.38574522812171
C         3.11968717222756    2.87406613869578   -3.10694828239805
C         3.24467271040831    3.44279935448893   -1.69810238771210
C         3.26613608568280    2.36168563839179   -0.52295283584240
C         2.27098846721245    2.75683284430858    0.55590569952493
C         1.44164846653826    3.53530720126068    1.19325047349632
C         4.57388986620200    2.48734636619124    0.24150864312794
C         5.74770178111002    2.91455032051844    0.61527147657972
C         4.25039519038135    1.90734646014278   -3.55520321879089
N         5.31312646158680    2.72797623221830   -4.32748455719663
C         4.90251460584377    1.06826381935712   -2.48267265527993
N         4.00519317951291    0.23222338119163   -1.69963376758975
H         3.63186588398075   -1.96716917242129    0.09289587559153
H         1.90846148795499   -1.60364055031548   -0.14252305854435
H         2.61651749408996   -1.74652902641008    1.50393064354255
H         3.91168983747442    0.28038261465128    1.01918908348800
H         2.15886775257442    0.56023683971678    1.12136771357861
H         0.72342370123559    0.55278382602283   -0.73109687383800
H         1.44587692680948   -0.13180054457976   -2.25609983700928
H         0.63965159827970    2.79754917045283   -1.77233133915183
H         0.02886398757923    1.68491307130033   -2.88856205766303
H         3.16749786069284    3.68705351015176   -3.83645228080269
H         2.46384230832301    4.20288174811442   -1.40341713546919
H         4.23861192466126    4.03013356219393   -1.67086881419905
H         0.86839415163437    3.88588159358857    2.02106648676910
H         6.74789620651316    3.04053675276982    0.96918260479012
H         3.85376762161512    1.17529994783464   -4.26276512084052
H         5.65916780855823    3.44391728373266   -3.68838405507168
H         6.08256125408523    2.16863178510272   -4.70347644572755
H         5.49576656113930    1.65405639513589   -1.75532434504991
H         5.51965186137992    0.28476499625661   -2.94366162310959
H         3.61690243785940   -0.55434517019027   -2.26183769240664
