37
 energy: -49.851877635076 gnorm: 0.335422522242 xtb: 6.4.1 (79825abcba525fcdf90b791dcacef51065a7a4e7)
C         3.00746580778648   -1.53815504098600    0.26090552636444
C         3.02711236105565   -0.03032767615528    0.44559967298709
C         3.10807573765873    0.87251024920664   -0.85524515148399
C         1.56237915301009    0.84079475657440   -1.65392802087865
C         1.10309683000119    2.15935564169560   -2.25452624616711
O         1.80796944933269    2.72008214146418   -3.29183153322031
C         3.16300957627255    2.99406650847801   -3.03631563761595
C         3.43873066175644    3.48447828421143   -1.57203884765216
C         3.34450072873052    2.30135657484387   -0.50358774273582
C         2.19015034227131    2.61710260809106    0.43352244224794
C         1.22499956672320    3.22069373955489    1.06928751641486
C         4.52608885496351    2.54929233634161    0.41987821558094
C         5.34635443548991    2.98008209913859    1.33727716179985
C         4.05232795644239    1.87468277051450   -3.57796744644191
N         4.96441956867465    2.44375664864935   -4.69308773384855
C         4.94245420367873    1.17372834313432   -2.57997978397464
N         4.18996866334934    0.30229772643875   -1.69021945232210
H         2.20908701797186   -1.83239933872499   -0.41725923823202
H         2.80399302164830   -2.03770587015072    1.21664073676401
H         3.98229674768260   -1.89678392451340   -0.09743198301420
H         3.92410286869238    0.22430430850456    1.02049435334882
H         2.19459471203509    0.38476561309136    1.02489540467920
H         0.81208269491238    0.56929798867498   -0.91566699188856
H         1.74736953924164    0.05906946961902   -2.45183103776461
H         0.91841683439501    2.82471558159603   -1.39033916829063
H         0.08769014748189    2.04042476126053   -2.67845605768438
H         3.28676325497702    3.85618927186274   -3.69725419726955
H         2.70607896742821    4.27053705355229   -1.22621537591862
H         4.52006950708882    3.88970615001674   -1.56131558575583
H         0.50801775760549    3.56288570788357    1.78037402482208
H         6.20398710412580    3.23428566339809    1.92153854950358
H         3.38108307035282    1.18165765600741   -4.09079866941019
H         5.56767218806942    3.19223545851616   -4.35157433258517
H         5.43072372133207    1.66376070374192   -5.16259042161010
H         5.43651842589072    1.93511028564496   -1.94725988495735
H         5.68689729944978    0.54799819176544   -3.09135624138049
H         3.88959174068435   -0.59443057882300   -2.12746662493279
