37
 energy: -49.853234149308 gnorm: 0.323833138013 xtb: 6.4.1 (79825abcba525fcdf90b791dcacef51065a7a4e7)
C         2.42633341143134   -1.21552521454673    0.49434314328630
C         2.75337313537154    0.26252474725044    0.62261865518403
C         2.90118855992600    0.97013559447302   -0.78851781418568
C         1.31194101664625    0.88136799364988   -1.49171813452842
C         1.02442615377161    2.00171387581146   -2.47783252807776
O         1.96022103402949    2.15799501391653   -3.47137468828161
C         3.22600545677637    2.72890256287321   -3.25150218488022
C         3.42032860328172    3.31037934680734   -1.84765839689374
C         3.34350895869795    2.39471943246532   -0.54155362097061
C         2.35678329726579    3.01085228477757    0.43678611553776
C         1.77292187724163    3.69387256834880    1.38157429689657
C         4.65225716095447    2.52426319005678    0.22055438176306
C         5.80483740047603    2.68897601335298    0.80746554897036
C         4.37357456727776    1.72121503596289   -3.61448379646828
N         5.49832750681532    2.64914457615123   -4.13709936916938
C         4.87230872745569    0.91980128732292   -2.43607747392076
N         3.85850090936435    0.23612731308122   -1.64735517718763
H         3.22498877571214   -1.66985319816790   -0.08843600810149
H         1.45671401994702   -1.43024658905687    0.02731534414502
H         2.46299134767763   -1.71979801005424    1.46988450668774
H         3.74790115375719    0.40101107178750    1.06041869028898
H         1.96628276641817    0.78437536090545    1.17861533494163
H         0.60095805935239    0.86478124697227   -0.66957901513829
H         1.28783080444948   -0.13708487827906   -1.98582089447426
H         0.83097908493091    2.91389344300206   -1.88273881687097
H         0.06848524934745    1.69990322385660   -2.94687313216683
H         3.37101393402306    3.46676558429627   -4.04519048323040
H         2.63342976542733    4.09518496048593   -1.64984248110039
H         4.39701046877757    3.92628907881450   -1.82852608001356
H         0.90815000804787    3.89727961270739    1.97114827336055
H         6.64484008431610    2.99591597351923    1.39201493666321
H         4.04078981796833    1.00490736788677   -4.36947187920196
H         6.38250528908535    2.14027975427655   -4.14430334687320
H         5.24187407922975    2.98156583437922   -5.06983392800924
H         5.36023151050617    1.61693502740331   -1.72891957422759
H         5.51109064760693    0.07706259177719   -2.73438733982304
H         3.23143487970664   -0.25444183242687   -2.31941406397166
