37
 energy: -49.858968806971 gnorm: 0.313589918047 xtb: 6.4.1 (79825abcba525fcdf90b791dcacef51065a7a4e7)
C         2.56642461861672   -1.35744841090698    0.32409438112120
C         2.82423809006974    0.12025697669069    0.56484379186958
C         2.99277267614565    0.90448066991458   -0.80280306970088
C         1.49478115095494    0.83688210510040   -1.68571300578976
C         1.04618523405948    2.09085884300266   -2.41821920571272
O         1.91848602810810    2.48083991651230   -3.40526933763918
C         3.24649124591311    2.86536592230550   -3.15025670200051
C         3.44221032271201    3.40799254684545   -1.76208881079947
C         3.29985953901357    2.41496273728750   -0.51956233345076
C         2.20031328297827    2.94643054449915    0.38538837981139
C         1.63641922902099    3.47498679183106    1.43547755577993
C         4.60555635573048    2.54894594719061    0.24699899443381
C         5.52461179104859    3.00250798721757    1.05301066425769
C         4.22019293011782    1.75761559427492   -3.54305497884393
N         5.37233927941051    2.31440534246285   -4.41586275232490
C         4.92097960740375    1.06099972196648   -2.40144840070245
N         4.11042812241439    0.24178513625618   -1.51308304292226
H         3.39518741235113   -1.74466662142445   -0.26506615387938
H         1.64381251688367   -1.54484553981400   -0.23986592239512
H         2.53988122166509   -1.85797902657783    1.30188799896286
H         3.70839107817359    0.30581125324723    1.18434069753422
H         1.96041656270101    0.61605113951698    1.02197849480001
H         0.72916252858073    0.55536684088102   -0.96719933281358
H         1.57945700666592   -0.03861865074766   -2.39866007102229
H         0.92789700320835    2.87636400531730   -1.64840144116085
H         0.07492075540258    1.90929780442073   -2.91680989181465
H         3.46829279824595    3.69474889910804   -3.82726361551520
H         2.69955653976791    4.24779649699750   -1.62996976234789
H         4.46923545834077    3.93175048277341   -1.69489284023128
H         0.89524901033004    3.72627491882015    2.15957922790309
H         6.35406226532656    3.03081166629482    1.72585938325311
H         3.57188254008090    1.02761976351321   -4.03361495985920
H         5.80725182464304    1.57679965206557   -4.97043878712700
H         4.99406082691745    3.01267568673684   -5.06052541556196
H         5.42702116734850    1.81206221827640   -1.76586720604383
H         5.75879583375035    0.46964385416813   -2.79591238505657
H         3.74774759599041   -0.63663967905688   -1.94012603704886
