37
 energy: -49.850930802533 gnorm: 0.312179755365 xtb: 6.4.1 (79825abcba525fcdf90b791dcacef51065a7a4e7)
C         2.73945496788804   -1.21002193942182    0.37146554261405
C         2.90313463286778    0.28268035559648    0.60187844004722
C         2.88773147936014    1.03834054025196   -0.79189667605413
C         1.23246774572677    0.94644194965667   -1.32079624358165
C         1.00589647877355    1.99201408308924   -2.40047474390042
O         2.01230232462345    2.00254569912631   -3.33551390601375
C         3.20731299820908    2.71748727815236   -3.14238809031697
C         3.47164294485182    3.44782161836683   -1.80108933245435
C         3.38310477491545    2.48698574681395   -0.52861165251687
C         2.36186215291863    3.21714658909538    0.32831570668498
C         1.25192429700084    3.35444183191358    0.99855712247527
C         4.72919804058461    2.46479443431562    0.17704584734833
C         5.69243106447123    2.25647055609729    1.03075513638368
C         4.38073853045803    1.86395534534341   -3.56990040489205
N         5.57940975169807    2.70239868564256   -4.07926227220283
C         4.79634862160124    0.94085807565882   -2.44972144467134
N         3.73042138822407    0.26113340786440   -1.72925439781133
H         3.49823952290370   -1.57189530637856   -0.31932350785795
H         1.70506150701274   -1.45046964433916    0.09470379039203
H         2.97938568359685   -1.66111813846995    1.34422516305468
H         3.86523138654086    0.52430186378241    1.06655272978566
H         2.18128574436724    0.73661679803336    1.29024426443654
H         0.58127378822135    1.00245792821225   -0.45218053037003
H         1.06249045551612   -0.06805796402712   -1.79393759458962
H         0.83566011091146    3.00554662861975   -1.99132780868856
H         0.10692213649090    1.68003161952258   -2.96565068556200
H         3.14447497798693    3.53899131444187   -3.86113207350779
H         2.71827287707052    4.26982584374289   -1.62501161804583
H         4.54298999853871    3.86228760666251   -1.91962938439938
H         0.51510340500890    3.97346960045321    1.45757986116408
H         6.65820934748219    2.18488620874880    1.48204508879224
H         4.04091116098838    1.25011822476240   -4.40749858907705
H         6.34955397596986    2.08336226079192   -4.33310756648080
H         5.23868176917714    3.28801339885968   -4.84556890814505
H         5.34200604704208    1.62840921722441   -1.77617278965015
H         5.47936345692252    0.16142915893528   -2.81471586256638
H         3.07078250355603   -0.15415025588039   -2.42059299781189
