37
 energy: -49.853716296910 gnorm: 0.321899049148 xtb: 6.4.1 (79825abcba525fcdf90b791dcacef51065a7a4e7)
C         2.57938902024494   -1.36148930347406    0.29682581087065
C         2.85722206311374    0.10988759033016    0.55353598634293
C         2.98127666412686    0.92313280538514   -0.80186481125110
C         1.45447536030929    0.69514965139999   -1.60497102550303
C         0.95083474926222    1.90728591633252   -2.37134762959527
O         1.82931075133126    2.13654524581315   -3.40235778947167
C         3.08555271496856    2.71458425486494   -3.14894787474103
C         3.20872910204928    3.33595547245884   -1.81055266898216
C         3.24619770629666    2.40318037671241   -0.51487881212885
C         2.28277681125319    3.00416096273075    0.49558560093979
C         1.68809967626560    3.44379512452229    1.56941819503998
C         4.60109788092447    2.63945824521687    0.13229215277227
C         5.71698878670821    2.99602426129687    0.70472942279139
C         4.27765857868742    1.85463633482815   -3.55016560338787
N         5.29485161132801    2.76157028873184   -4.28639829823674
C         4.95667235073520    1.13114266311549   -2.41212411716944
N         4.06838449495506    0.31261737128491   -1.60079170178155
H         3.21856226412310   -1.70612689499082   -0.51346940798515
H         1.53088854782189   -1.50358606814435    0.00555743466865
H         2.83583897612954   -1.90953164175097    1.21399472871541
H         3.81537408829603    0.19316840053439    1.07788540747458
H         2.00974669381576    0.53716799262728    1.10143066234826
H         0.73695003161541    0.41019810371237   -0.83969680309453
H         1.55390801602448   -0.16896357714796   -2.32980657047505
H         0.70382765835353    2.78036450545487   -1.73861456534888
H         0.03842594812436    1.53555481971836   -2.87556776214799
H         3.20899611819952    3.54484665435581   -3.84954510995131
H         2.32844000404276    4.03929194664975   -1.74221770106765
H         4.19025663181236    3.94438547320799   -1.81646427652498
H         1.25047941814965    3.98010571463866    2.38038163950883
H         6.74872542264929    3.03189411123935    0.97995198626482
H         3.95849611134276    1.18454920558364   -4.35201841308960
H         5.70208497284339    3.38234731639178   -3.58671084937752
H         6.08684625230454    2.18565199621044   -4.58191245982012
H         5.52530372402899    1.87599132070118   -1.82391052719550
H         5.74204186195093    0.50964285045301   -2.86397845237846
H         3.74489054306406   -0.47881096697415   -2.19621246714805
