37
 energy: -49.812803459588 gnorm: 0.321521459465 xtb: 6.4.1 (79825abcba525fcdf90b791dcacef51065a7a4e7)
C         2.63141074509631   -1.47619010282433    0.01100635747581
C         2.82308582538306   -0.01533884838358    0.38143253546867
C         3.12000506751203    0.97511187332639   -0.82053043283756
C         1.69233126267905    1.00127158027021   -1.81508626709182
C         1.05013794722095    2.19220767269762   -2.50756027967371
O         1.91991444472226    2.61069060556894   -3.48511987134661
C         3.23101545540609    2.91377838790474   -3.07812909994148
C         3.19901717256992    3.45856674213518   -1.60181742769302
C         3.24733631571051    2.44570639144383   -0.36811439768129
C         2.15465303040070    2.82566167551721    0.61782324760441
C         1.41253097654080    3.45147988355557    1.48824953825801
C         4.52859447415542    2.62069986240209    0.43073898006452
C         5.74153235403344    2.68910893582906    0.90417127983038
C         4.21313020062448    1.74941062688546   -3.41396170818976
N         4.98166292165809    1.90724961072093   -4.74951169049615
C         5.12212730925783    1.31293795254027   -2.29019256774642
N         4.33256342654789    0.41555102979467   -1.46038244352993
H         1.62649111974677   -1.87604141927582   -0.10795295544641
H         2.98361498235130   -2.05503794997348    0.87429619481049
H         3.22973302832056   -1.70480279918652   -0.88177720458327
H         3.67696230993980   -0.03586698916765    1.06729466200062
H         1.93019423847149    0.28178254417311    0.94306863806025
H         1.02926760911071    0.78098876125692   -0.98231577756908
H         1.85845221307852    0.25260676801564   -2.64807481478244
H         0.67641023288631    2.95404685867269   -1.79794171564863
H         0.19455042941023    1.80820227867476   -3.09528608927238
H         3.35342200062114    3.78133123214321   -3.73217734887752
H         2.43726600239372    4.20077603304044   -1.22350368455271
H         4.13601669123740    4.12699590338623   -1.50772884638582
H         0.54117159019654    3.49437239198948    2.10118943889314
H         6.57190411799635    2.85261446991021    1.55629338039397
H         3.57329260079543    0.86664795878872   -3.48598453399051
H         4.22299188706165    2.05772702562879   -5.41474883900928
H         5.40798361179669    2.82885165849176   -4.62635997349953
H         5.69614683307739    2.03221478190534   -1.67596230327153
H         5.89401599539520    0.61642192498941   -2.64556969995149
H         4.85884942233383   -0.20454486317699   -0.80920107600382
