37
 energy: -49.853989607172 gnorm: 0.327004578089 xtb: 6.4.1 (79825abcba525fcdf90b791dcacef51065a7a4e7)
C         2.88873981196312   -1.45054501772493    0.38979045411690
C         3.15530941207737    0.03996769027134    0.51370087639469
C         3.14642642776796    0.87524518024779   -0.83392713337220
C         1.52899922712673    0.79425033802007   -1.47067450598670
C         1.09627460941701    2.05357996599863   -2.20354528697201
O         1.77092421938443    2.49927813775008   -3.31415904478626
C         3.10533481932817    2.92105968001531   -3.18022535512285
C         3.50477328042626    3.35969118195067   -1.79037051815584
C         3.37761763124632    2.34090759900157   -0.56719617384309
C         2.20476827673660    2.77088722447715    0.29879327774761
C         1.51317724354629    3.20367415967237    1.31586399751922
C         4.54797453748792    2.61386859134219    0.36348583228210
C         5.22444818166087    3.10057691091008    1.36624936481787
C         4.07315232879347    1.90170606784229   -3.70985806134953
N         5.06672799277754    2.70578046153466   -4.58479875220882
C         4.78883900304012    1.02131730476219   -2.71369069102075
N         4.03576215234575    0.18217363683938   -1.79390135786971
H         3.80493112775934   -1.86286875287427   -0.02791573099464
H         1.96975454348345   -1.65466929674950   -0.17428520843652
H         2.76327280326580   -1.86587342258618    1.39928347242790
H         4.11448303953717    0.27822476471014    0.98609142540363
H         2.35311972547881    0.46419721634429    1.12810516958894
H         0.83868743489648    0.52639050787602   -0.67480682990393
H         1.55751860593455   -0.06144907642368   -2.21157277754938
H         1.00590574306392    2.85406039489619   -1.44545927145330
H         0.06314306031178    1.90648940351254   -2.57221226273596
H         3.20656774134563    3.77979402241449   -3.84935735737321
H         2.98053612608752    4.29933538816976   -1.44904232597106
H         4.61284120718144    3.68444987647214   -1.80868897932422
H         0.64258542880802    3.43766556487919    1.88517952086167
H         5.99828718920703    3.49471225934382    1.98861992451109
H         3.52902921733606    1.22727128799004   -4.37537826161223
H         5.49546679943224    3.34783028956835   -3.91792491942381
H         5.78559416004074    2.12814136483588   -5.02732617302856
H         5.46854432211728    1.60753082362666   -2.06678205902458
H         5.49172996268109    0.38610118625790   -3.27018364512732
H         3.58735871167725   -0.65511523110399   -2.22217083507590
