37
 energy: -49.856228564158 gnorm: 0.329922850943 xtb: 6.4.1 (79825abcba525fcdf90b791dcacef51065a7a4e7)
C         2.43789448848700   -1.25717778846550    0.34736543176835
C         2.95759456356522    0.15892075356669    0.52797005177853
C         2.96917242495353    0.97682227961168   -0.83025367531644
C         1.29942671524514    1.01038728014699   -1.31902845673452
C         1.04691057826613    1.88733179571400   -2.53453872258931
O         2.04669315457236    1.88077336687372   -3.47669245912952
C         3.18773206814081    2.66267127242952   -3.22538504759618
C         3.37328316632647    3.26742725464789   -1.87920703111968
C         3.33203390965551    2.41569879032562   -0.52898440553879
C         2.35964842653778    3.09941572631774    0.41832415111131
C         1.64547527204476    3.58784747130564    1.39373516484140
C         4.62812551776364    2.50957699615575    0.25952396498922
C         5.60010320733605    2.93506629119520    1.01731980260665
C         4.40817892080374    1.80364135244408   -3.63037387583916
N         5.60993904927822    2.74142561574833   -3.90529697871287
C         4.86118254520850    0.91973701173236   -2.49320983630599
N         3.76011883431298    0.23171839207535   -1.83625600231468
H         2.78177090058156   -1.71811829285368   -0.57631130362276
H         1.34467531816573   -1.35284146284137    0.33725082699019
H         2.80395514148569   -1.85531037182861    1.19326898379480
H         3.95643514207459    0.09461924512651    0.97307242978393
H         2.33149735397469    0.67448233010863    1.26497084194523
H         0.65310365173236    1.28417333556696   -0.48897284969099
H         0.97274469247448   -0.04149809596510   -1.58128997426921
H         0.80168982903400    2.88793255949303   -2.13168049438035
H         0.17167972895736    1.44538073955512   -3.04792161580653
H         3.14112560720239    3.47089093153293   -3.96024505619226
H         2.63921558737463    4.11347873628875   -1.73919829276159
H         4.34630393230625    3.88810544993879   -1.91930036287225
H         1.01968953249885    4.06249774956004    2.11477719296635
H         6.54144895133570    3.02385098407059    1.51481361440009
H         4.08988434834384    1.26510637108242   -4.52620757066108
H         6.41215301464785    2.15316484970890   -4.13149971919528
H         5.41771135249320    3.41071502536198   -4.65454073708815
H         5.43536415122926    1.51361940148283   -1.75716936233434
H         5.45823928952312    0.12519609718949   -2.96168353435458
H         3.05804990380144   -0.24230349372273   -2.44283287952619
