37
 energy: -49.822255539485 gnorm: 0.323512627852 xtb: 6.4.1 (79825abcba525fcdf90b791dcacef51065a7a4e7)
C         2.51359468002405   -1.39548954084824    0.45483518459338
C         2.66621038071748    0.11595731957404    0.47151192166323
C         3.07628671772751    0.90512316471547   -0.84108981256867
C         1.94901884105732    0.61445996671108   -2.13448077081756
C         1.15338578728468    1.88351585736553   -2.39279546140757
O         1.79089021380048    2.73363111362223   -3.26351587199663
C         3.14616809551502    2.99371130495983   -2.99505785014646
C         3.33826696336310    3.49208250509325   -1.51524534706327
C         3.24829117477557    2.37222041777950   -0.38031922755613
C         2.22060226366058    2.86651526261445    0.62463052929238
C         1.31580167905618    3.61367561172667    1.19306948695789
C         4.60366523656542    2.45968548971630    0.30211975464829
C         5.73241040942920    2.49953773834961    0.95356618925122
C         4.01429656682101    1.83103998354417   -3.55402104111918
N         4.95717398998244    2.55073767833743   -4.55014695503883
C         4.83851154061366    1.08948130112493   -2.52913001395863
N         4.29178579224286    0.30223704368178   -1.43430733807160
H         1.49799983227796   -1.76080472703832    0.31696652663526
H         3.03125797887280   -1.83515212361463    1.31686970856564
H         3.09965781675123   -1.84973301250696   -0.35603390256198
H         3.49935578775440    0.34269566201872    1.14559779673494
H         1.79600898507472    0.74203526748371    0.69899280862472
H         1.36018659877461   -0.17675773223282   -1.67738585649659
H         2.53888302313634    0.23877985270475   -3.02492436291376
H         0.86008465940816    2.29921425594164   -1.41055356341178
H         0.20235823735642    1.64695870278615   -2.90709020430173
H         3.32542104668065    3.79019933250057   -3.72230307239328
H         2.49188121788421    4.23830452329001   -1.54756610299191
H         4.29301756446192    4.13014382210475   -1.39298598226205
H         0.62041347658865    3.75756417848444    1.98838931859357
H         6.69679842254965    2.85836523412550    1.24116516351063
H         3.39587174654450    1.28936985715415   -4.27373875357606
H         5.79211352250794    2.89039501494337   -4.07236612075209
H         5.26817544099997    1.92643866567904   -5.29834134886581
H         5.57825577086473    1.81209528635741   -2.13575501344192
H         5.39372918289891    0.40130543853239   -3.18134698584621
H         4.95402054726693    0.38047128298914   -0.63377153473582
