37
 energy: -49.859605553098 gnorm: 0.327803260940 xtb: 6.4.1 (79825abcba525fcdf90b791dcacef51065a7a4e7)
C         2.78291703653924   -1.39251644302118    0.26730231930222
C         3.03348278921624    0.08716451157251    0.50352753766750
C         3.05042614248026    0.94407351564929   -0.83037220654197
C         1.39837517703129    0.79736968866228   -1.35694957606172
C         0.94511397228981    1.86339159226815   -2.34102928350122
O         1.85250352394595    2.12225300987517   -3.33947650003886
C         3.06270154098827    2.80813223444971   -3.13581010384080
C         3.20667680457191    3.41427182161392   -1.71962349319779
C         3.29189405917646    2.40416278132780   -0.48566168528495
C         2.24974138939231    2.78145905327186    0.55451192415015
C         1.31406177443947    3.27484604779777    1.31681660472713
C         4.65972607543168    2.56956959662940    0.15627920915393
C         5.81280789702467    2.79855908657280    0.72019620389436
C         4.28651665405102    1.93458694148282   -3.54105777731225
N         5.26237893368325    2.85280281932715   -4.31811752808027
C         4.98495493537522    1.18305317554997   -2.43334744245977
N         4.01962250232757    0.32495413359996   -1.76319926153025
H         3.29950533295326   -1.71401425888697   -0.63473511523116
H         1.71104565664425   -1.56269411543269    0.10447325871206
H         3.02731940820215   -1.97826122579863    1.16423394349247
H         4.03299138991471    0.14490316569148    0.94802963794004
H         2.31976509677020    0.51242112532227    1.21818513942328
H         0.81890519033670    0.92259027560180   -0.44578605806919
H         1.24375620487625   -0.23772878427069   -1.78895561406836
H         0.68908001014743    2.82616557127362   -1.86025622688001
H         0.06526779998826    1.47342019088902   -2.88756820241496
H         3.09022337380127    3.63880329020380   -3.84618926854805
H         2.34825638399326    4.12640976254235   -1.54574222956919
H         4.16921857876902    4.05050729020694   -1.76795633257472
H         0.54692465182328    3.62324784260270    1.97020705136284
H         6.81663294463042    3.01950871782267    1.01179716850978
H         3.96628762720273    1.25508435914532   -4.33451790911417
H         5.79921909544513    3.40845709752680   -3.65192189709977
H         5.90269032510759    2.27503537188916   -4.86807398944139
H         5.40381103660032    1.88850849247879   -1.69103433387289
H         5.75589672571115    0.54195089332433   -2.88265384819578
H         3.53718547842742   -0.16444837403292   -2.54631658536465
