37
 energy: -49.852263692918 gnorm: 0.320108480956 xtb: 6.4.1 (79825abcba525fcdf90b791dcacef51065a7a4e7)
C         2.52641595244650   -1.34370157875742    0.55465306794515
C         3.00271934724212    0.09891936963184    0.55925219610359
C         2.92267514286178    0.94541755320286   -0.77899381830594
C         1.31839289141423    1.01566606554175   -1.44938305854549
C         0.96652845988504    2.00299834841095   -2.55012266107399
O         1.91743408519274    2.12348749381192   -3.53425818673871
C         3.16456873787950    2.70332122372435   -3.24281770315517
C         3.36811213840364    3.39409694084628   -1.87321751575944
C         3.29840324740444    2.43825900729531   -0.59581446304744
C         2.35115807832360    3.14989525933324    0.35639157482327
C         1.60170015043502    3.26777808815692    1.41679337904236
C         4.64473902863570    2.58146270331414    0.09504341232644
C         5.58966663030940    2.85081710658768    0.95212938208701
C         4.36257805876195    1.80277153770011   -3.58271128965982
N         5.52688260558702    2.70664806160178   -4.05879068955995
C         4.89503137051410    1.00776330593473   -2.41476582783611
N         3.84363355870027    0.27527186990145   -1.72533258736117
H         3.19174850058615   -1.94131603175721   -0.06509318059477
H         1.48635991949361   -1.45370911602686    0.22214173287144
H         2.54742500561364   -1.79126123030494    1.55793009150102
H         4.05735704317177    0.11485549356355    0.85491870072743
H         2.38613709668273    0.67121785847838    1.26158572605034
H         0.60343614336740    1.11002431699608   -0.63598402648077
H         1.27058269148182   -0.05018300364574   -1.82838838558058
H         0.70226697966021    2.96578327602582   -2.07384447663984
H         0.04310896959821    1.68259883893088   -3.06930699187752
H         3.21458926541218    3.53928483115874   -3.94572111444947
H         2.66872729912199    4.25604151804128   -1.66785647234654
H         4.44668412862834    3.80643592759518   -1.85656422527113
H         0.96640087272784    3.77486491010111    2.10676445260813
H         6.41534617087197    2.82463422041593    1.62968551611579
H         4.01306408514663    1.13278638887830   -4.37189393787845
H         6.38549233037030    2.15687908473228   -4.09497172666982
H         5.29906680351031    3.01342733895816   -5.00760702899484
H         5.47472441090244    1.61842020617932   -1.69699809546313
H         5.61426351237465    0.25318586566363   -2.76197993903397
H         3.38783869561492   -0.29650863304944   -2.46752605149905
