37
 energy: -49.856911133560 gnorm: 0.328233518999 xtb: 6.4.1 (79825abcba525fcdf90b791dcacef51065a7a4e7)
C         2.56479442583103   -1.22046941348009    0.52738662012035
C         2.69717835318602    0.29104484844678    0.60380919071076
C         2.99051060359074    1.01620907804161   -0.77530707595034
C         1.52240027718030    0.88996304856738   -1.70093774783939
C         1.08461779084522    2.17128368913801   -2.39146305501027
O         1.94188322772212    2.57900164883584   -3.38450077442584
C         3.30678884905814    2.82950887982545   -3.15918250147239
C         3.46838003472955    3.47846143185000   -1.76229932882198
C         3.31647914572260    2.46332186734983   -0.53891803861090
C         2.29548748442394    2.98416919299186    0.45942554040333
C         1.47276423563334    3.73011325922268    1.14260150564065
C         4.65320247171406    2.50600469716967    0.18341214073947
C         5.65586543857582    2.33215205903335    0.99856763661265
C         4.19531473982814    1.62514010800307   -3.50954175893867
N         5.13618303452371    2.18261914163358   -4.60646172979710
C         4.97115523169831    1.03849235170487   -2.35474430430332
N         4.15131170186226    0.32801303095757   -1.38501497207752
H         3.53123610106608   -1.59055279204494    0.19134402139368
H         1.76511424601834   -1.57126807072475   -0.13731926240634
H         2.34979758314636   -1.68155444783047    1.50129254833371
H         3.53882545095439    0.52544313556250    1.26458216078018
H         1.74018571481703    0.70346896492975    0.94298916949829
H         0.72693311317102    0.52222727270479   -1.05775269868634
H         1.77733086032524    0.04888798267770   -2.41477822255614
H         0.94068722873006    2.89570070931221   -1.56797423874837
H         0.11341293445453    2.08553474085296   -2.91521873796299
H         3.58413085893498    3.65144748816672   -3.82469639724530
H         2.77547023401168    4.36502151679534   -1.67203316576816
H         4.54172861020089    3.90381098952898   -1.73742178147510
H         0.60424642612930    4.08170598523573    1.65138596471514
H         6.54894187140211    2.50245536997412    1.55975019213647
H         3.54973923158428    0.87789602986599   -3.97720394537510
H         5.99263900549897    1.62978829298621   -4.56612716076986
H         4.67598637218348    2.05342364854179   -5.51078112427554
H         5.59158888105725    1.79829887714968   -1.84298994966636
H         5.70511546581169    0.27890331498495   -2.65734386907092
H         3.76719223065942   -0.52524964748829   -1.84319405581657
