37
 energy: -49.854742275586 gnorm: 0.319178707085 xtb: 6.4.1 (79825abcba525fcdf90b791dcacef51065a7a4e7)
C         2.62398285365708   -1.29192618076226    0.40296545080383
C         2.79940061469474    0.20734854513746    0.57456143786575
C         3.05244765069344    0.94581322046089   -0.80547688282653
C         1.53285846837349    0.81052842632526   -1.64251025872106
C         1.10721820835437    2.07900398726154   -2.36366309220835
O         1.84454441212425    2.56820523866560   -3.41451706913686
C         3.19319444154148    2.85793701903701   -3.14306146389511
C         3.51725820862858    3.34280203419485   -1.75517962811163
C         3.29388386162047    2.40670133032016   -0.48079216583290
C         2.22810827510117    3.00307249613014    0.42411647291595
C         1.42913859895164    3.42382571121719    1.36467468269128
C         4.53188649756858    2.58276446726160    0.38336248585149
C         5.62620753862885    2.46501398766588    1.08238506893207
C         4.12317917518113    1.79093372758560   -3.67740684918500
N         5.17653511694749    2.47959247519193   -4.58042392133848
C         4.87683475476391    1.06093330527792   -2.59170713443230
N         4.14519899703818    0.31397658341335   -1.57974664616724
H         3.55000221431099   -1.67652097116617   -0.01949263910727
H         1.82278385879101   -1.55485046651457   -0.29941122073096
H         2.51739604047637   -1.85964769764617    1.33765648999845
H         3.64024890968612    0.37154019093796    1.25716568654772
H         1.87274784452129    0.63018061084460    0.97891191381937
H         0.81359192945046    0.68357409995460   -0.83738737229265
H         1.56133812370748   -0.13699053082256   -2.26167245633795
H         1.07850029014934    2.79751273909023   -1.52309762124143
H         0.08831769094579    2.00686280513103   -2.78974894741048
H         3.37902912217451    3.68943454136948   -3.82825322801417
H         2.92868930538254    4.28433208751958   -1.55178698181360
H         4.59536245444609    3.75638831667746   -1.77117733262997
H         0.62696841400406    3.88880041747692    1.89110014161657
H         6.30995047712786    2.71966352057118    1.86287454844797
H         3.59639152291901    1.15480673022090   -4.39272956122549
H         5.88880902577432    2.98609649925269   -4.05422509266736
H         5.69419386876985    1.68992796854614   -4.97377541083932
H         5.56545433321138    1.73865472198907   -2.05260311269309
H         5.58848189115462    0.34897227269897   -3.03205866197969
H         3.75020654908748   -0.55777913098543   -1.99151840300957
