37
 energy: -49.853707427337 gnorm: 0.330848849434 xtb: 6.4.1 (79825abcba525fcdf90b791dcacef51065a7a4e7)
C         2.73680548164278   -1.37242978467483    0.43664456161329
C         2.75999019235433    0.14021550759238    0.57595703972376
C         3.01575061692739    0.93111984136902   -0.77420057556135
C         1.57446820153196    0.84569824724013   -1.74553279560431
C         1.10243152148538    2.15931603445948   -2.34707329387543
O         1.84264256228859    2.68842771759719   -3.37634017764397
C         3.20696580954204    2.90932176249813   -3.11881843094090
C         3.54002135938982    3.39946289591465   -1.76947410075979
C         3.31598634328858    2.44271278982069   -0.51063275120197
C         2.19956074163466    3.00953659018291    0.35116795945892
C         1.29953600759705    3.70108118082629    0.99285094570114
C         4.56567990851570    2.46150157540925    0.35442501052778
C         5.65147418088282    2.62304847646263    1.05798000793656
C         4.12444159800196    1.64136136227132   -3.49120257959087
N         5.12799788322704    2.28754232359573   -4.47840792347935
C         4.90754373777882    1.03457490069867   -2.35181570551491
N         4.16256119702218    0.22986400856106   -1.39539495577832
H         3.72487195834472   -1.61184694782651    0.04895924269772
H         1.96700510381897   -1.64126825074683   -0.29787246042124
H         2.53185948789657   -1.79596047777606    1.42958700704740
H         3.53106854980035    0.47579670823728    1.27792337555751
H         1.78969238755339    0.46657852257751    0.96708486056988
H         0.86855046019516    0.53847522752637   -0.97808326891801
H         1.83915877506110    0.10311414155582   -2.55822759585537
H         1.05223206189379    2.91584289295436   -1.54160635909792
H         0.09346051596522    2.03772951567786   -2.78537227762749
H         3.44900969612563    3.69181310674955   -3.84306456654547
H         2.89929433847867    4.31306610952342   -1.59900764213432
H         4.66656129156570    3.65199702700286   -1.79690762335459
H         0.64334770946236    4.26866075074603    1.61258685952051
H         6.60586457506129    2.80597237881574    1.50204352952123
H         3.48156047696198    0.85956674342400   -3.90272464211941
H         5.97325674159635    1.73318582712852   -4.61621936012952
H         4.69879530491332    2.44776046398200   -5.39294677172958
H         5.48519963769622    1.78097321037425   -1.77445999757024
H         5.63815694623640    0.34954333882146   -2.80367378661235
H         3.85094555654173   -0.66983806871091   -1.81843739354592
