37
 energy: -49.854322226523 gnorm: 0.322849850126 xtb: 6.4.1 (79825abcba525fcdf90b791dcacef51065a7a4e7)
C         2.85404299397014   -1.37588721075594    0.23612751770391
C         3.09209918880565    0.10144629065313    0.49853226481101
C         3.01479572951530    0.93414039340274   -0.84850646978842
C         1.35484232605871    0.80436506638872   -1.35426450900078
C         1.01071608415083    1.94232463185264   -2.30130539844259
O         1.92206982031174    2.13834774600689   -3.31039963709744
C         3.12917922673725    2.83357767815489   -3.12057926290867
C         3.40228024023128    3.39228441619152   -1.75446871657071
C         3.33104597500984    2.44153465037407   -0.47335803653604
C         2.27667365620341    3.04666052432865    0.43906596218560
C         1.15020598411899    3.26451023137008    1.05845894273166
C         4.58047230769828    2.48698422756547    0.39109568212912
C         5.72341822221189    2.69253923826972    0.98393461876987
C         4.30328317119291    1.91005144568968   -3.63166706470275
N         5.34647474015517    2.86907170553909   -4.25719159263151
C         4.85706681976505    1.07350640689362   -2.50332434693853
N         3.81699343309882    0.25854606412459   -1.89390967157147
H         1.85545363734680   -1.57449150292996   -0.14763214519068
H         3.07757850145029   -1.99586485369735    1.11364765840998
H         3.54786193276866   -1.61233509964951   -0.58242210467666
H         4.04984536191393    0.21196461464380    1.01857195574942
H         2.31596469631722    0.54934315494797    1.12938507515446
H         0.69597642812881    0.78873341032287   -0.48977853614665
H         1.28535146264188   -0.22459883326188   -1.82156463226804
H         0.77874620774999    2.86171397207164   -1.73161857753001
H         0.05904066208479    1.68993132546125   -2.80679850483882
H         3.11294659570482    3.63306200373293   -3.86621437919762
H         2.65560616290585    4.21767295776332   -1.56612768188040
H         4.45116278142048    3.86822314847872   -1.67112575116538
H         0.35647929154074    3.78853784528908    1.54032539513301
H         6.60985984294470    2.76164573788514    1.57635354478775
H         3.91710622256817    1.26673942350584   -4.42593803626214
H         5.79143726042309    3.31413425427781   -3.45426361443771
H         6.03394441746576    2.29531588745155   -4.75161622256859
H         5.26587093133954    1.66934664603647   -1.66547591394287
H         5.65194306698304    0.35889705283399   -2.75777443888989
H         3.16643808886190    0.05313250974277   -2.68138415062261
