37
 energy: -49.858490428487 gnorm: 0.335434120063 xtb: 6.4.1 (79825abcba525fcdf90b791dcacef51065a7a4e7)
C         2.68454012317733   -1.34095949944113    0.41912740343995
C         2.86313273437308    0.16244568889712    0.54529711646629
C         3.05005991050146    1.00274504874525   -0.78617720275162
C         1.54097065216608    0.85585378996256   -1.64008041730932
C         1.14580626497256    2.15436839417353   -2.32416098201820
O         1.91540444915720    2.52094649250944   -3.40147291869329
C         3.23705087082176    2.91261566274560   -3.12518403132839
C         3.50148407634631    3.45387243303519   -1.70781711709357
C         3.29321923059193    2.44725886678637   -0.48568828209917
C         2.18161321064283    3.01761511605096    0.38000312331973
C         1.21234334266435    3.47670820852184    1.12147796575877
C         4.56224995584901    2.50483855461717    0.34897186328967
C         5.59486149414228    2.41479101308725    1.13994664201107
C         4.16582457016076    1.74773313480979   -3.55837732277345
N         5.12733437619021    2.38563408473326   -4.59173627027888
C         4.95645956532417    1.13461326589768   -2.42761583118798
N         4.17249343698648    0.34299446376637   -1.49164786260641
H         3.53672892393462   -1.85464200673108   -0.02110023819782
H         1.83525618222999   -1.49438288061084   -0.25878118328396
H         2.60487660152884   -1.75925316082413    1.43204395699217
H         3.69188515584165    0.50264168845192    1.17566956033297
H         1.95449797351494    0.57255668929048    1.00044924324057
H         0.79088655905730    0.47384221089594   -0.95223913902782
H         1.73278437546639    0.05343851484427   -2.41551727089250
H         0.98149664023848    3.00655779871237   -1.63829990104315
H         0.16730291630908    1.93138339150403   -2.79076644268933
H         3.48278763419975    3.72810026797454   -3.81075584635407
H         2.77386149949439    4.29787554690239   -1.52758145702199
H         4.59032644158135    3.83863286886516   -1.70794225867238
H         0.52991529363136    3.88394533904349    1.83228886076937
H         6.51850330873236    2.40211834101128    1.67682632480374
H         3.55379510561969    0.96534728478023   -4.01350553108674
H         6.02486817753742    1.90579324896207   -4.52136935572098
H         4.66839360606100    2.31189701296996   -5.50289060652480
H         5.51608520912130    1.88839109206607   -1.84214634737855
H         5.69442745907694    0.45111330807179   -2.86973665407870
H         3.85086841828437   -0.50790922264894   -1.99963733413191
