37
 energy: -49.856633145596 gnorm: 0.336270968557 xtb: 6.4.1 (79825abcba525fcdf90b791dcacef51065a7a4e7)
C         2.82451160604091   -1.43684702756815    0.26317498701352
C         2.94508394030166    0.05857013770007    0.50240519309053
C         3.00108359737153    0.91778907143250   -0.82893830436697
C         1.50237138691047    0.67590986389146   -1.67948770932057
C         1.00455187967897    1.90852662953881   -2.41643610390054
O         1.83416816980761    2.39905962258353   -3.39540294190256
C         3.08887516241904    2.92329501790602   -3.03850356531491
C         3.26023826791738    3.41421618112321   -1.67563894424844
C         3.22317121655872    2.35243029288487   -0.48338025560006
C         2.15480889778090    2.81395245024780    0.49436977023290
C         1.54646077177912    3.43203318668949    1.46798379668104
C         4.49468977278896    2.59893336326669    0.31216282974001
C         5.63242903313089    3.06452070022346    0.74669024104641
C         4.18800988871137    1.88993288680310   -3.56828838180367
N         5.25601602115272    2.70622319888573   -4.33788728435737
C         4.88589500918390    1.07780403550883   -2.50384284187436
N         4.10988053308356    0.27504709921339   -1.57073936934876
H         1.86041147257949   -1.84732589391898   -0.02993570844011
H         3.12447336331578   -1.92662374506484    1.19833471098171
H         3.57305197868864   -1.73944195966186   -0.48210309923666
H         3.84598002491089    0.27153195143785    1.08803888640811
H         2.05503901088390    0.38511566647290    1.05209570690636
H         0.77659330176542    0.40275712922811   -0.91770140598861
H         1.67456990905554   -0.22302291872043   -2.34599548367566
H         0.68503499018087    2.66613053873507   -1.67645290790054
H         0.09420948596495    1.61069306327817   -2.97094819899010
H         3.22959237570632    3.78988809273827   -3.69013652973763
H         2.49591033645952    4.20273043520829   -1.41427932580786
H         4.31415835835172    3.87855374059586   -1.59042518693308
H         0.84114670453508    3.83431156972588    2.15900220695959
H         6.62570894186826    3.25125684993644    1.09315703661108
H         3.72608126482611    1.27742639642733   -4.34630323734114
H         5.73232287709164    3.41271873126154   -3.77685119228844
H         5.92924477104641    2.06165422009459   -4.75926584644261
H         5.48578249817083    1.77029922444624   -1.88358337787493
H         5.54146201145100    0.35120940776215   -3.00337440143701
H         3.69529950923241   -0.46857644887214   -2.17130546291041
