37
 energy: -49.855886007383 gnorm: 0.327676698217 xtb: 6.4.1 (79825abcba525fcdf90b791dcacef51065a7a4e7)
C         2.77683183403740   -1.37017809130729    0.39953776480590
C         3.09128751910973    0.11216540028347    0.50824228408310
C         3.00118569396665    0.92383410585315   -0.85078097522777
C         1.34280504303412    0.87860414944162   -1.37595332669342
C         1.04984434795803    1.97664359287657   -2.38528216352647
O         1.97499298860332    2.11102604678875   -3.39191179991680
C         3.15164331832491    2.83683764779012   -3.13660595692131
C         3.32645511784727    3.40727383614434   -1.74014822117351
C         3.27664046263054    2.36457564266391   -0.53161894260298
C         2.18771704708501    2.86561892891975    0.40304532938268
C         1.44389330259116    3.59827299446094    1.18405737198703
C         4.51000755449836    2.53048662838273    0.34113025219076
C         5.66671070991543    2.47593327731512    0.94037815933201
C         4.30024591784338    1.96007459550479   -3.61937135372611
N         5.39740377918625    2.82820986243364   -4.28407822817650
C         4.84598648001945    1.02591625985750   -2.56620628466738
N         3.85725604042052    0.23816620282091   -1.84567785236553
H         3.35630602201622   -1.89664808643059   -0.35606454894807
H         1.70713396317159   -1.45827886106411    0.17070001095291
H         2.96669635593411   -1.91835790483597    1.33268628654026
H         4.10202818268669    0.21754107226956    0.91718309991009
H         2.30654510169397    0.47013866173853    1.18426454858665
H         0.61899958134898    0.92768731419168   -0.56639720520241
H         1.12708961499667   -0.11918042614233   -1.86570621010402
H         0.87441485812759    2.94039836759611   -1.87144261211040
H         0.07771870035632    1.65848936882667   -2.80796571609684
H         3.06027093210679    3.71695377941405   -3.77883418246345
H         2.64518601690186    4.29289802928080   -1.57951521273963
H         4.43069167990144    3.74532148005895   -1.74207593240063
H         0.58426232926369    3.97708204310415    1.68837927329703
H         6.50286300810280    2.74041552250080    1.55063472727786
H         3.85000482391327    1.44116973999574   -4.46900073058390
H         5.73689105643650    3.57856117092686   -3.68200933069574
H         6.22777958475235    2.24350263684880   -4.40597774649733
H         5.44799847076132    1.60242790030376   -1.83864028749293
H         5.53962484475101    0.27964304031150   -2.97752334883738
H         3.31199497240574   -0.30909484810992   -2.54476922633041
