37
 energy: -49.848400820694 gnorm: 0.317851940613 xtb: 6.4.1 (79825abcba525fcdf90b791dcacef51065a7a4e7)
C         2.56852929714501   -1.30100343667631    0.30693229051524
C         3.01678074192100    0.13094784817099    0.54489749305152
C         2.98213756246143    0.94037365283462   -0.81800322337659
C         1.35975069082503    0.76967079972572   -1.42364297264301
C         0.98606068381684    1.59547109024300   -2.64375401182762
O         2.03657209251553    1.98470664396491   -3.43885359048665
C         3.12412413129456    2.83669926236009   -3.17841416723852
C         3.19014163701546    3.43672863449903   -1.74121941744607
C         3.29291305025227    2.44103936914114   -0.49691843370118
C         2.23840227520991    2.86255733760538    0.51339114599504
C         1.59479351326106    3.45619526823271    1.47951603761552
C         4.60276587482082    2.64027918092981    0.24806550991869
C         5.79200447225511    2.41245489495959    0.73163963208701
C         4.35597988861123    2.05965732476962   -3.59240109814408
N         5.42859213286547    3.10109401938123   -3.99757023314628
C         4.86370035640496    1.10423090307945   -2.53930020110805
N         3.86781526793428    0.31715379229542   -1.82794813030496
H         1.49406931738509   -1.42334558498331    0.18666592979468
H         2.84820782622901   -1.81903123714349    1.23311214156896
H         3.14111031137406   -1.69077342780930   -0.54603086486630
H         4.06903295542988    0.04927079589312    0.83820185793131
H         2.42323420729725    0.70025897631967    1.26916192705111
H         0.77564858288552    1.10096242448102   -0.56880076253150
H         1.19355616824965   -0.34094618965088   -1.56812264451014
H         0.39734919523965    2.49255846540108   -2.37489925390375
H         0.32003724452766    1.05051866333255   -3.33970760319876
H         3.04067823975116    3.68536569091679   -3.86267470826875
H         2.35073914923073    4.17203989515905   -1.57097966269370
H         4.12866289716220    4.10646497838594   -1.80640665715977
H         0.83141642791194    3.68987797905276    2.18623385254513
H         6.73761372000099    2.63512528116117    1.17633690224340
H         4.13578712221509    1.48320947179128   -4.49410636495850
H         5.73420741178605    3.51110882077254   -3.11481725590680
H         6.27787847997432    2.67819208624268   -4.37984325894638
H         5.44405492230604    1.65015951092036   -1.77164994100724
H         5.56917019726863    0.39694807291270   -2.99679657086303
H         3.17907100336896   -0.12136729237089   -2.47514488222324
