37
 energy: -49.838248228435 gnorm: 0.318031808298 xtb: 6.4.1 (79825abcba525fcdf90b791dcacef51065a7a4e7)
C         2.92846394589394   -1.35616438832404    0.43199914002422
C         2.76267708115946    0.14963120953165    0.54660982917084
C         2.95388803463773    0.93824119481641   -0.81552133472632
C         1.46757267936339    0.72577385543691   -1.69518173785032
C         1.04723895228613    1.96729216041818   -2.46473559865697
O         1.81658347044453    2.46766616818029   -3.48698641933178
C         3.12354793189060    2.89454863788538   -3.19355021592246
C         3.30815718031650    3.46837384006125   -1.78201395617903
C         3.18747713736926    2.45745564745629   -0.55167874564035
C         2.16521489367687    2.91654885243620    0.47526287247460
C         1.62090733152242    3.33170706337891    1.58495132314039
C         4.46729436449373    2.56127928344678    0.26177099957228
C         5.48986162734028    2.31704728683495    1.03296694001254
C         4.24045748437859    1.89073781911346   -3.59046026197606
N         5.31715650386649    2.61767207273868   -4.43398575395060
C         4.95201937170590    1.19591051453096   -2.45444269299591
N         4.06820360626177    0.39224278100359   -1.62360749710755
H         2.21249187495478   -1.84906891711095   -0.22246626461737
H         2.88733791749699   -1.82899277689704    1.42150606915634
H         3.94378479629978   -1.53290812906176    0.05094661214452
H         3.45900398775315    0.60218717267049    1.26093136132930
H         1.79743037203650    0.32411485344615    1.03530796504194
H         0.79692499299842    0.55547476658239   -0.85678176279486
H         1.60975533798063   -0.26509286177966   -2.22426805588266
H         0.80903813030487    2.70310481407148   -1.67386900866952
H         0.07797462215975    1.66739162712319   -2.90688726821545
H         3.29798628202537    3.63661964490799   -3.97733098521211
H         2.51405465821400    4.26895573179858   -1.83426878141064
H         4.31788719215327    4.01404023126326   -1.65429633360830
H         0.85712551354516    3.70652506550388    2.22756397632188
H         6.38956911712654    2.73805359279704    1.42640655398501
H         3.85505373385417    1.13124670700624   -4.27492104932093
H         6.01065354460853    3.05781952214738   -3.82892564773644
H         5.79755523799863    2.16122985214046   -5.21317993139319
H         5.35136435939638    2.03739485002673   -1.85731282222199
H         5.73824982550561    0.52607101324892   -2.82913769214763
H         3.69732043911410   -0.36892467652308   -2.23073418658952
