37
 energy: -49.851813761137 gnorm: 0.324011429897 xtb: 6.4.1 (79825abcba525fcdf90b791dcacef51065a7a4e7)
C         2.56168560888725   -1.24733128680455    0.43329100635779
C         2.73315265862417    0.25076604837229    0.61861424488211
C         3.00981914545183    0.99943027724226   -0.75135881086550
C         1.47844212601573    0.92900459646220   -1.57476805240188
C         1.03471078458122    2.15206531355745   -2.36057099721904
O         1.85359141889899    2.41670838277311   -3.43139331150845
C         3.19826704732954    2.74730808773733   -3.18841009921930
C         3.48605635718619    3.40359896843962   -1.84349386898737
C         3.37100895021391    2.46041912002983   -0.55997532126924
C         2.34054569591639    3.09142499676279    0.36218131301233
C         1.43025019290695    3.68337403322520    1.08398039800868
C         4.66190557354370    2.51575623520917    0.24060923349268
C         5.75093450106072    2.49912090221012    0.95739057847605
C         4.19925083601128    1.62933254674517   -3.57278351277395
N         5.29033697861462    2.36458781022763   -4.39020639617890
C         4.89758444878871    0.97353339617128   -2.40577928853348
N         4.14834006963390    0.28108481005922   -1.36825961532691
H         3.48610425514137   -1.58835061077835   -0.02828437645691
H         1.70726183340503   -1.41524616293726   -0.23465106032802
H         2.43373076139449   -1.69852346878264    1.42695542667827
H         3.47487539194449    0.40862147252710    1.40909660654460
H         1.78128233340553    0.61029036418874    1.02562379031153
H         0.73227727878121    0.79558077472184   -0.79558853400950
H         1.49188455543777    0.01869483803824   -2.24791033813277
H         0.83803121798467    3.04668755889550   -1.74041130603817
H         0.03547466671891    1.95803489518924   -2.79507203076965
H         3.43647251206030    3.58697671783758   -3.84691230877680
H         2.67449866769378    4.17569078308063   -1.70381886865050
H         4.57472290219604    3.77233912736943   -1.95509202467062
H         0.89213301675821    4.19694045920677    1.84784012026101
H         6.52317714605681    2.41158849739020    1.69053036129809
H         3.69293286356818    0.83921546485255   -4.13243204306998
H         6.12545034428118    1.78726610615494   -4.49046092917402
H         4.93691936580550    2.55429230408481   -5.33114964986714
H         5.49210886734174    1.79514151088599   -1.96347033492977
H         5.62297274550773    0.27600678684978   -2.84680998455009
H         3.81584073376242   -0.65667368288476   -1.67742985954417
