37
 energy: -49.856395357218 gnorm: 0.329072608694 xtb: 6.4.1 (79825abcba525fcdf90b791dcacef51065a7a4e7)
C         2.47368079034303   -1.25159173326856    0.41120789169313
C         2.85247593325734    0.20560648290505    0.61401044603147
C         3.04161333071971    1.02622479694435   -0.72937381529785
C         1.50362274247446    0.86533858999645   -1.52735796939474
C         1.08201067956500    2.07813797244892   -2.34075960176380
O         1.89573684283056    2.44977809615557   -3.38335023370623
C         3.23190409933957    2.81422087584471   -3.14183817387435
C         3.61652491357173    3.41473470075524   -1.73675719151822
C         3.36565043787008    2.48183799640919   -0.46514022170506
C         2.22686849655051    3.08519243149841    0.34079706758397
C         1.35647958764118    3.83414108240026    0.95848189790816
C         4.56087759391387    2.56960897526881    0.46981445955428
C         5.71058375665198    2.73919393350654    1.06095987198977
C         4.14834184099994    1.63126320929886   -3.59744029639923
N         5.25965610612233    2.17808760180008   -4.52760863132054
C         4.90870388343770    0.98476140145894   -2.46451214468592
N         4.10768792454018    0.30268724627988   -1.45930194931338
H         3.21505640148435   -1.79931136447119   -0.16694542334328
H         1.52682093667846   -1.51151263881647   -0.07897527668580
H         2.42673526861702   -1.80296742151049    1.36046906581410
H         3.79933037155893    0.23938416151736    1.16379135991813
H         2.09357238170380    0.69840090013984    1.23222617015868
H         0.79935827825181    0.52872651584794   -0.77079436114677
H         1.62424658447609    0.04400495208582   -2.29730993935094
H         0.94600819878996    2.92339930513258   -1.64028371991356
H         0.08332986331385    1.89750134858501   -2.78225570371258
H         3.42928934771849    3.67248825645207   -3.78977843261968
H         3.01491563830770    4.36269411120722   -1.61971022152865
H         4.74571251702382    3.61568936963510   -1.87155658322176
H         0.62713714170004    4.27106346842656    1.60187965440386
H         6.53223102074106    2.68343284542094    1.74162209674072
H         3.56620983587254    0.90204784103173   -4.16596175164821
H         5.98853512144542    1.49811139046591   -4.74471088358570
H         4.81613714342272    2.53831008460830   -5.37601696655965
H         5.61141661024269    1.68743603773515   -1.97811768748329
H         5.54526267398142    0.16368873264072   -2.82210437794169
H         3.68108267480637   -0.46652107403569   -2.01774582316208
