37
 energy: -49.852734230080 gnorm: 0.315283050553 xtb: 6.4.1 (79825abcba525fcdf90b791dcacef51065a7a4e7)
C         2.79371488299258   -1.45262535816570    0.16005048019089
C         3.09511729498766    0.00543942094818    0.46211829300290
C         2.94864230103010    0.95234219958977   -0.80112707113833
C         1.30152252700841    0.88883849784933   -1.35883834165277
C         0.98065440089897    1.98468474673331   -2.36204616345373
O         1.91070391178227    2.07159956377415   -3.36937709123578
C         3.07861333507407    2.82871346486214   -3.17124664971222
C         3.34976541256720    3.42640343482369   -1.75260596827335
C         3.33909551904494    2.42575661557023   -0.50808353145327
C         2.22031407885678    2.78292899615780    0.45687850969609
C         1.29270901903803    3.40795972392181    1.12689414362579
C         4.72176008635869    2.50962634490424    0.11770920237588
C         5.57162694120494    2.94564738231962    1.00520468881322
C         4.35134751107978    1.93482999981349   -3.56112237940266
N         5.43263156284341    2.83739153265635   -4.20568185860462
C         4.86754325862443    1.08674755147388   -2.42360783834216
N         3.82898037972313    0.28868080305396   -1.78974991410323
H         1.75650928943808   -1.60367150566711   -0.13198627249538
H         2.91499090579451   -2.09589998326630    1.04088637931774
H         3.48345652790798   -1.80970520841359   -0.61716651146065
H         4.16431177179563    0.08144915875217    0.68790359526005
H         2.51492100071570    0.34644950904526    1.32702059946266
H         0.67653058507005    0.88186979991502   -0.46944465652435
H         1.11946684062515   -0.16044733623757   -1.74331208266053
H         0.80217985778353    2.94207237116444   -1.83746477755485
H        -0.01485325268559    1.80101028100173   -2.80941622613105
H         3.01989748188320    3.64831717705283   -3.89250431195627
H         2.63830031891461    4.26719386683455   -1.50532145566957
H         4.41234988683651    3.87232084604525   -1.82803938483814
H         0.61564826274997    3.61402675399270    1.92434467532626
H         6.48825697558079    3.10442160902174    1.53065186787884
H         4.03977496206756    1.24886284890232   -4.35246363598538
H         5.81958269354755    3.41095614356512   -3.45597650684367
H         6.19502464363333    2.21320888047076   -4.48030672596623
H         5.40739934533083    1.64470115742953   -1.63533151106846
H         5.55504356922157    0.32772717431865   -2.82169202113036
H         3.27515232824758   -0.07961168882697   -2.59172757539878
