37
 energy: -49.853443914692 gnorm: 0.320596773874 xtb: 6.4.1 (79825abcba525fcdf90b791dcacef51065a7a4e7)
C         2.64452766629506   -1.33108598254470    0.37718537180442
C         2.83299758174823    0.15930434531583    0.60358554661509
C         3.01737020048598    0.93735355601216   -0.76554366907007
C         1.57323261616336    0.74141379987992   -1.71641294549569
C         1.09226702969843    2.05785245132397   -2.30456485688265
O         1.83212955195143    2.56681291788694   -3.34419198610342
C         3.15935562421817    2.96261422315300   -3.10273426323308
C         3.36313078114728    3.46108544171576   -1.69372515690206
C         3.28535037770876    2.42127173690310   -0.48418734689165
C         2.22922564180730    2.97667898775157    0.45736411039738
C         1.17654986988885    3.37817456150138    1.11364956630678
C         4.63886954222093    2.55569638370270    0.19428737287407
C         5.77688929248662    2.27620757093656    0.76598076293425
C         4.17471467302841    1.84550058054157   -3.51882244018620
N         5.21126830665370    2.54023487820001   -4.43650989442325
C         4.92941911447760    1.18017481134018   -2.39303203031334
N         4.15799561572469    0.33577405576163   -1.49348080553132
H         3.57026993970759   -1.90010460982133    0.32137415503126
H         2.08295823799271   -1.48380984633481   -0.55324312991624
H         2.20148107676033   -1.86577046655560    1.22873574045439
H         3.72975721773076    0.45717210910844    1.15768866224229
H         2.03160010619960    0.65405235736359    1.16390519693794
H         0.89422506433944    0.39660076001936   -0.94069564551758
H         1.73659152636087   -0.01852604616739   -2.53968106033992
H         0.95284249392482    2.82221482723730   -1.51720165385059
H         0.11732854081610    1.85549159295631   -2.78773852812168
H         3.34296915952747    3.78400223135444   -3.80060117134068
H         2.60151543058835    4.27594701173502   -1.51993376719410
H         4.36638950304601    4.02121474553227   -1.57820281322723
H         0.39413979247927    3.75276181173753    1.73358594419180
H         6.78742122717215    2.49040024992792    1.03885683198919
H         3.63814610071962    1.10811923774954   -4.12066319346188
H         6.07487787807423    2.59522967312768   -3.89621392407021
H         5.35006818515056    1.95255147168768   -5.26211804490206
H         5.46225275680905    1.93656822174977   -1.78632476385836
H         5.73041925117634    0.58789861704557   -2.85654828381607
H         3.81164331989281   -0.55646726205476   -1.90515854033588
