37
 energy: -49.852448570812 gnorm: 0.322720448394 xtb: 6.4.1 (79825abcba525fcdf90b791dcacef51065a7a4e7)
C         2.49980115482292   -1.25970079494792    0.49904673961151
C         2.77271383223023    0.22528561744400    0.66749644415996
C         2.97001057770078    0.95529277010959   -0.72607170885407
C         1.50907165560679    0.80125999501766   -1.65881470728744
C         1.16333738829813    2.13148385456276   -2.30783981381171
O         1.96595857104533    2.57791946612955   -3.32948376243033
C         3.33365843292927    2.82636655967775   -3.11933933224991
C         3.55607353850921    3.43031900502499   -1.74582221154293
C         3.30668004332481    2.46732496634240   -0.49654667259933
C         2.29578113477336    3.10874430635032    0.43996839004277
C         1.29033879207716    3.81252524536611    0.88021108236206
C         4.55524283073729    2.52198864852949    0.36862087041915
C         5.75543855925709    2.64594494682092    0.86278811180859
C         4.20893480299296    1.61208450476220   -3.56243765697136
N         5.19505858292264    2.19491926797897   -4.60508475582591
C         4.93219710046192    0.95222537970429   -2.41303833383794
N         4.08585026649923    0.28703977519232   -1.43399573802422
H         3.40220630518044   -1.77539347739556    0.17714326226414
H         1.71897106966531   -1.32748709478469   -0.26912732518401
H         2.15728061804473   -1.76711787177084    1.41147394233951
H         3.73710274586745    0.32821474298205    1.17670458477925
H         1.91156174574973    0.65849885438029    1.18875932888003
H         0.75073443407203    0.49048019456920   -0.94465422720154
H         1.66971501242029    0.02931037155400   -2.47137398677228
H         1.09418231937488    2.83855448988566   -1.45996096080230
H         0.18831558193025    2.06652063940241   -2.82747817687790
H         3.52794125077116    3.69676935223364   -3.75184512446793
H         2.96492563706011    4.35471279591433   -1.48067876983183
H         4.63583477409547    3.83390817861285   -1.67618198390797
H         0.67883234532200    4.31501406376037    1.59461091490794
H         6.63195863123832    2.51417139364927    1.45933058261026
H         3.54403549611309    0.88254642659045   -4.03098058343469
H         5.84309249132008    1.46289043122592   -4.89654914577950
H         4.55233082899263    2.53716642771865   -5.32343977019158
H         5.54720178544494    1.67841784084108   -1.84863587493707
H         5.60764388959899    0.14400414617449   -2.72575177967382
H         3.72029957045160   -0.58856668211887   -1.86436657791311
