37
 energy: -49.848107207476 gnorm: 0.320655510989 xtb: 6.4.1 (79825abcba525fcdf90b791dcacef51065a7a4e7)
C         2.58624408476193   -1.34079429129625    0.48684068686253
C         2.93090302652925    0.13845385696150    0.51964933293287
C         3.01378194596001    0.90631357559124   -0.86504961745497
C         1.42637612252300    0.67835599819092   -1.54051703037010
C         1.05017422991473    1.92056737244080   -2.33149384855230
O         1.97232822512272    2.14094511672099   -3.32564048517423
C         3.16304917313639    2.84647054163302   -3.07884694626757
C         3.41608751457391    3.42280752202968   -1.67888284133013
C         3.34565417770718    2.34685823445260   -0.50091158135787
C         2.26195740611633    2.79163311405151    0.46768142435717
C         1.27081872494903    3.51007328647717    0.91659496287243
C         4.70579806398854    2.36820236969373    0.17729563298626
C         5.72557429072543    2.75079297117521    0.89403625094757
C         4.25499939472714    1.97054587248746   -3.61898017344689
N         5.26374754615946    2.98544070794202   -4.21199373426073
C         4.89669777085752    1.08781394962996   -2.57559684674136
N         3.99568921546137    0.27291428319802   -1.77470898121690
H         1.50859797079816   -1.49057659774717    0.49867118168226
H         3.05693565292701   -1.74999856216825    1.38982646224278
H         2.93631055498586   -2.02992077936639   -0.29410358652215
H         3.92519263783118    0.26552221327373    0.96143560913348
H         2.17543029359886    0.58887613131325    1.17337124959463
H         0.70622659692801    0.45113780833931   -0.75856999102607
H         1.49511011405465   -0.29689078943633   -2.11159884034565
H         0.93466123727551    2.77254658825605   -1.63549239688892
H         0.09719791072944    1.75780551846520   -2.87024841663476
H         3.04859580311953    3.74635691428340   -3.68918730558088
H         2.63220304521042    4.20071887869340   -1.44513121420999
H         4.40377054450083    4.01879892056806   -1.73268607009299
H         0.45421947127218    3.78434412270121    1.54488106073502
H         6.63593524278958    2.84429099296610    1.44541240493598
H         3.80693351898603    1.47282734528041   -4.48232402640285
H         5.76769377091679    3.40461996053413   -3.43026960668017
H         5.98286897212032    2.55150524966822   -4.79580055459389
H         5.54086347583319    1.66828437319731   -1.88839889800653
H         5.60997402692740    0.38397332251774   -3.02624635656569
H         3.51891958666955   -0.44107312230814   -2.36500191289982
