37
 energy: -49.853781053868 gnorm: 0.327597558847 xtb: 6.4.1 (79825abcba525fcdf90b791dcacef51065a7a4e7)
C         2.69162872616219   -1.27176743075324    0.37715409282453
C         2.94190597303514    0.20813043734698    0.61232398307303
C         2.90237699707496    0.96745009623441   -0.77898466771869
C         1.23172550701601    0.97190119911939   -1.26579255366665
C         1.02064662926009    1.94419716517697   -2.41485632519042
O         2.02424066511239    2.04174628754106   -3.34788636549552
C         3.20864243999690    2.77564680558456   -3.16061112057909
C         3.45191932507610    3.40055313045412   -1.81982932372030
C         3.34336437963745    2.45206046105319   -0.53966470093226
C         2.29176802307992    2.99283948385315    0.41537401281012
C         1.41881301914618    3.76276398669199    1.00291234961746
C         4.66175938984030    2.46915437251274    0.21661189803274
C         5.72310430696676    2.63503877595927    0.95557438777701
C         4.39511856430940    1.81828765732239   -3.60556118931328
N         5.61727619592275    2.66310248770566   -4.04358866475981
C         4.73677747191072    0.89846071580432   -2.45802957380216
N         3.64895640594041    0.19347181321368   -1.79701880828048
H         3.18813685882170   -1.61427438290974   -0.52842003932808
H         1.60674000857355   -1.43598242073638    0.35637175150823
H         3.08160597701015   -1.79809135428124    1.25931999538472
H         3.98336632657778    0.31052918258253    0.93606483802817
H         2.19804626652755    0.69214137774610    1.25526858908590
H         0.63121627954818    1.31575071050277   -0.42743654418412
H         1.07504347379734   -0.10491332234650   -1.57866044737693
H         0.75623427694918    2.94277003094262   -2.01916933261908
H         0.21338469705701    1.54397609025986   -3.05755612657414
H         3.18675865948230    3.56528773825992   -3.91652031445916
H         2.76912276955675    4.28766084136697   -1.67460698133812
H         4.52965621840975    3.81081063985818   -1.75826416480654
H         0.62018368485935    4.19358406911924    1.56272257819539
H         6.70365846579498    2.64970199550581    1.37961812566378
H         3.96786589432129    1.21638283536351   -4.41117593041794
H         6.37792249315037    1.98525951254702   -4.09566328853056
H         5.46826802324689    2.88437759309853   -5.03106013417447
H         5.18399298333010    1.51633697829795   -1.65655368552817
H         5.48713537615819    0.19309350149790   -2.84099136707363
H         3.06363501811159   -0.32911613548124   -2.48246300602351
