37
 energy: -49.854822905164 gnorm: 0.328837452492 xtb: 6.4.1 (79825abcba525fcdf90b791dcacef51065a7a4e7)
C         2.45722378989950   -1.28754975414465    0.40427378908859
C         2.83492902996918    0.17213460509108    0.59055744517391
C         3.07509362057337    0.96718480167495   -0.76002939034679
C         1.60003610465314    0.82613921753302   -1.67238326857141
C         1.14965613806036    2.13077195651829   -2.30905633316742
O         1.92917929500644    2.58945706632237   -3.34308413449678
C         3.30116457567116    2.82691029854950   -3.14875991006693
C         3.54016570757742    3.46303929561916   -1.72679049410454
C         3.30934214536763    2.48521588151548   -0.48549042518944
C         2.23036034792808    3.12554215986076    0.37251674958224
C         1.35385561138900    3.84685437997542    1.01398665785247
C         4.48723822597038    2.50803966007637    0.47495313431043
C         5.62925291156344    2.71386133373977    1.06949174129235
C         4.19328702310653    1.62545676502779   -3.53492534831123
N         5.16498025455415    2.08185682071907   -4.65150973674290
C         4.97610481196578    0.97594155821742   -2.41914422032513
N         4.19060218043719    0.25758185586525   -1.42705339269632
H         3.25996297397857   -1.89359016593587   -0.01072099218662
H         1.52063214487922   -1.47020655973334   -0.13777286943314
H         2.29815899627803   -1.70636100338432    1.40757401195992
H         3.75267648393655    0.26940584494038    1.18065169932136
H         2.04633934511826    0.68923336871529    1.14886452675827
H         0.87030894019369    0.51976760395083   -0.92718576645711
H         1.73359680347113    0.09120793510178   -2.52326671643558
H         1.12370083885306    2.92011076233739   -1.53452393978538
H         0.10421033357250    1.98980270531728   -2.64384359504994
H         3.44307653934417    3.64658001638797   -3.85827591412813
H         2.85956228494224    4.34263465109065   -1.53352448374427
H         4.64340121075816    3.80434503350270   -1.72713219801473
H         0.61549204511259    4.44004302665825    1.50362805164125
H         6.53091249553346    2.77389277340803    1.63950997575830
H         3.59705946837109    0.81468617114617   -3.96038171134715
H         5.62422982716011    1.29852502651093   -5.11653316103013
H         4.57460361910074    2.56661942032530   -5.33174988626961
H         5.63851536030772    1.68408959027690   -1.88634499080798
H         5.69519808757640    0.29205752179719   -2.89078721268705
H         3.87289813218839   -0.69290682199246   -1.71195416547298
