37
 energy: -49.855873664733 gnorm: 0.327752195827 xtb: 6.4.1 (79825abcba525fcdf90b791dcacef51065a7a4e7)
C         2.70373969999608   -1.37267549011708    0.40840530443594
C         2.97580318627475    0.11402267448012    0.56251988649182
C         2.92789440811034    0.94477538823185   -0.78708128557596
C         1.25569996671059    0.89273079209873   -1.26576201585923
C         1.03422825399612    1.94696161999787   -2.33805345537515
O         2.02128717356074    1.93942469596038   -3.29352180141033
C         3.16208627488656    2.75126938567995   -3.16712891282670
C         3.39026682371838    3.39071487660773   -1.81332976095477
C         3.32135765570217    2.41262894161709   -0.55283641335595
C         2.36141888784051    3.18451506831233    0.33772816709870
C         1.33751714115869    3.71332246422496    0.94766545112786
C         4.64970238611709    2.45123029961142    0.18501329500915
C         5.72381937459673    2.52825181789211    0.92011648539357
C         4.41701421309353    1.87294231466665   -3.62625338274265
N         5.57883691564528    2.87511975790906   -3.83852166459995
C         4.78502279189756    0.86507433875987   -2.56398550261610
N         3.66416042889566    0.25093408938291   -1.86842919736271
H         3.38925887949802   -1.80391677386346   -0.31822407607588
H         1.67018630437592   -1.57200835262946    0.09789638907354
H         2.87209092354210   -1.88666808059966    1.36484939101653
H         3.96418954990923    0.22906001714043    1.02055058215140
H         2.30973021564905    0.61081613727962    1.27702298159530
H         0.60304595919090    1.12645169481131   -0.42844373497969
H         1.21585015884199   -0.17380158106049   -1.64376437287315
H         0.91073634620722    2.94771711392011   -1.88322596446432
H         0.06246691156794    1.74322411361487   -2.82701428463295
H         3.04871906692365    3.44960034018163   -4.00073083577480
H         2.57175923907623    4.15530828353362   -1.67296230247067
H         4.40463207288527    3.94223953597423   -1.83573514083286
H         0.66793682407474    4.42588779960457    1.37277148516993
H         6.64752229042229    2.67578155663928    1.43637464969781
H         4.10592660962168    1.40316342620298   -4.56240597111314
H         6.43464957882239    2.33728223373484   -3.97665615715768
H         5.47079357373146    3.36745391864162   -4.72857768595026
H         5.36763818093148    1.39213587586164   -1.78494645772901
H         5.43917003774718    0.06858955057479   -2.94469929212952
H         2.95071612078455   -0.15965019841854   -2.50713946127352
