37
 energy: -49.823304679585 gnorm: 0.330046314510 xtb: 6.4.1 (79825abcba525fcdf90b791dcacef51065a7a4e7)
C         2.96539733409835   -1.50123931735717    0.24975730545911
C         3.01349759441791   -0.00307213283420    0.49718957836940
C         2.87424560775362    0.93536427424135   -0.77317046509702
C         1.26556890396002    0.84085918623336   -1.42990951695075
C         0.96253799041009    1.87227238570260   -2.50444214398028
O         1.92987716594675    2.11487701310964   -3.44924889160321
C         3.14663246537745    2.73930602254591   -3.12354272716873
C         3.35850767314065    3.26517845334556   -1.67507490854201
C         3.25848597285173    2.34463776939751   -0.37398131447486
C         2.25204119213928    3.12389705006152    0.45681330632958
C         1.32234912236087    3.77554573768816    1.09795461652516
C         4.60176550362636    2.43440127248634    0.33167768408014
C         5.75638074059956    2.68357299137879    0.88377674880595
C         4.37711266153186    1.86715329970941   -3.59405645314504
N         5.46237330618835    2.91148002282970   -3.95577522776540
C         4.88040804625442    1.08140662065283   -2.40706987693379
N         3.75220526568390    0.37129531532984   -1.82380349151746
H         2.06907840615091   -1.59372052435085   -0.36012420158407
H         2.84545547389376   -2.12118163535765    1.14734711750609
H         3.90831560431882   -1.91477186833675   -0.13392455915450
H         3.87446829134494    0.34963278242987    1.07534354914384
H         2.19378977999421    0.38306899830813    1.11358697093986
H         0.50241010077502    0.88061501268236   -0.65680361688914
H         1.05895885839471   -0.16794297341041   -1.90064891810516
H         0.67536599050650    2.79141221809994   -1.96006721131494
H         0.18043942325540    1.49508573074953   -3.19071018872153
H         3.08386458641153    3.67391943456601   -3.68742957329723
H         2.57411818812471    4.05813362896589   -1.50124742524322
H         4.34454178643477    3.85771273121930   -1.57379229727534
H         0.71600577862129    4.24489615654163    1.83880560847387
H         6.77694366366384    2.99023961825173    0.96072814177536
H         4.08858847314544    1.27255952158518   -4.46414920768887
H         6.18096765985628    2.43552968868965   -4.50153991075973
H         5.13168284771901    3.72071481383643   -4.48685797498653
H         5.41450844937276    1.68846672708464   -1.65185389761589
H         5.53134805489975    0.26288302329186   -2.74402069273409
H         3.45325651180830   -0.56908014735852   -2.15825329502529
