37
 energy: -49.851721476508 gnorm: 0.322233693991 xtb: 6.4.1 (79825abcba525fcdf90b791dcacef51065a7a4e7)
C         2.88909231582260   -1.48114753155351    0.24888787916016
C         3.21920407215845   -0.01112763250901    0.44410315074399
C         2.98917039388253    0.87789784161406   -0.84840869028381
C         1.32638257562251    0.76616178610152   -1.34913801496868
C         1.01429639649310    1.87160029495296   -2.34456215026221
O         2.00656267943184    2.03117745583631   -3.28115417969137
C         3.13257185724318    2.86218176078605   -3.14689797424264
C         3.36057727130851    3.37171523343819   -1.73371986229740
C         3.20107985088290    2.36928784933246   -0.50085980329866
C         2.08568996508609    2.82779991688147    0.42437959036354
C         1.44155771835588    3.63444697947276    1.22090310877998
C         4.42141118953505    2.56713153659369    0.38348251294607
C         5.51814355373226    2.88883128759729    1.01095651031381
C         4.34318592887470    2.00964472596217   -3.58180245988268
N         5.37027992587824    2.89818782612294   -4.32666387238479
C         4.84624438293067    1.09027707569120   -2.49490939455392
N         3.81094308984109    0.25202048513674   -1.90943832154851
H         1.84488786792776   -1.66793022516608    0.49105547244278
H         3.51938892060744   -2.05975005594584    0.93614860620621
H         3.19377453739447   -1.78782915232062   -0.76127593706776
H         4.28952762387897    0.08006985759634    0.65863479080390
H         2.69195103300514    0.43754721425659    1.29361285306160
H         0.64877891797039    0.92084765211036   -0.51330897543336
H         1.24605801318892   -0.25736078536123   -1.82654203926334
H         0.81289615141503    2.74378029033697   -1.69466227083499
H         0.09687117472790    1.63749943864080   -2.91765858384698
H         3.01079993914843    3.76528334022204   -3.75104162352901
H         2.66617488490192    4.23061461863549   -1.50057197401448
H         4.44844430120780    3.75904658977053   -1.74546947708314
H         0.60299041067606    4.14993470061343    1.63063418392090
H         6.22222177082474    3.04100208078169    1.80002719213900
H         3.97797220969899    1.37479248412497   -4.39262361164196
H         5.96286412174755    3.34273339493148   -3.62524469461003
H         5.89280676738394    2.34950133887229   -5.01381367359642
H         5.33401765037385    1.69722286058013   -1.70888748479195
H         5.54818687410877    0.38870283654713   -2.96640695828584
H         3.14319559238572   -0.16529320361619   -2.59171070423744
