37
 energy: -49.853762719272 gnorm: 0.329530889798 xtb: 6.4.1 (79825abcba525fcdf90b791dcacef51065a7a4e7)
C         2.57572664931471   -1.16519993254147    0.47701716847525
C         2.89060591902429    0.31493270802037    0.61155225469428
C         2.85205823401717    0.98497072594117   -0.82491277327411
C         1.18657200043257    0.91088492902759   -1.32365622614251
C         1.08041287843869    1.89643031927419   -2.47591132542629
O         2.05750456777212    1.88957484720506   -3.44157519515611
C         3.18327993535880    2.71827062370594   -3.29196676013445
C         3.30804262037666    3.38315792321317   -1.93639941149916
C         3.24824654076571    2.46614161005315   -0.63035595226887
C         2.34155949156338    3.07810102095251    0.42502078266484
C         1.71898386760761    3.76785035082388    1.33972345444163
C         4.55475243197388    2.49963990291646    0.14574463782420
C         5.76521138670854    2.56982259128754    0.62522330176855
C         4.42412510385553    1.83485228979813   -3.54226555735624
N         5.67016525680178    2.71132908334480   -3.82230450287620
C         4.76247350001788    0.87587998514338   -2.42623074527040
N         3.65748662008589    0.18665811371459   -1.77717260952074
H         3.36297910976677   -1.62783493438318   -0.11467385349045
H         1.59108522175313   -1.36559218113979    0.03576190899216
H         2.64519166234401   -1.66117419631256    1.45502532280366
H         3.89108178482470    0.40841791553736    1.04771950484940
H         2.15492541547680    0.87612447764360    1.19875717138847
H         0.54706667749980    1.11572901457998   -0.46881328154788
H         1.02788963121248   -0.15731550043661   -1.66385152338068
H         0.96989625482820    2.92057283267298   -2.07273885051035
H         0.11879718398121    1.61084751861899   -2.94351103759694
H         3.16110514105332    3.40108560270451   -4.14559571626800
H         2.51772180670076    4.18914354699263   -1.93000145905761
H         4.35318662727463    3.86404015830366   -1.83617673780284
H         1.19999125365411    4.05435551178294    2.22593093099751
H         6.61011269792635    2.67257222258787    1.27105520156389
H         4.13974987530087    1.26009163160777   -4.42692949635839
H         6.43524393377114    2.03856831295826   -3.87534428769715
H         5.51468739260241    3.03091627406982   -4.78144822097421
H         5.37821658245301    1.39734526830273   -1.66921634397188
H         5.41866475068736    0.09603009898106   -2.83670221100202
H         3.08910248354701   -0.16834205122150   -2.57494914189707
