37
 energy: -49.854569628660 gnorm: 0.331489453191 xtb: 6.4.1 (79825abcba525fcdf90b791dcacef51065a7a4e7)
C         2.54384985286267   -1.21852305114351    0.41305685186586
C         2.83657030031966    0.26095386971082    0.59609798898096
C         2.91697815961835    0.96586469873436   -0.82182441557683
C         1.26738788127964    0.89203912350532   -1.37089620451010
C         0.96013805956958    1.86842718911482   -2.49451766285591
O         1.96020672628566    1.83358124998181   -3.43574574284422
C         3.08430733656558    2.64883436924993   -3.21608755022626
C         3.33042353696284    3.32628771447877   -1.91005534056384
C         3.28208602048081    2.39448844173880   -0.61403928622205
C         2.34196837585376    3.07863332478365    0.36500128092886
C         1.88670979767787    3.91046047231724    1.25989723795335
C         4.63351136975313    2.40858298409995    0.08156324513667
C         5.69247077126666    2.65249455770261    0.80208276238075
C         4.42123665728280    1.84201461837231   -3.51120937815582
N         5.60267354675321    2.82146279419574   -3.72129886020099
C         4.86819785224053    0.89765357902527   -2.42123270976312
N         3.76586202610017    0.20733340725325   -1.76884245591552
H         3.39678897515952   -1.69493815645456   -0.06592054632690
H         1.61359776494840   -1.37526643439312   -0.14769671515838
H         2.50730445926003   -1.72632897034148    1.38676799534047
H         3.82061128725686    0.35451279257233    1.06816088327045
H         2.04541609119072    0.69338201877572    1.21903661601946
H         0.58395907557611    0.94740547168040   -0.52736537970169
H         1.21833051687346   -0.16306336867226   -1.77871626051518
H         0.82502616064310    2.85745648621012   -2.01786718227434
H         0.01895850108363    1.53569568803857   -2.97241153974038
H         2.97395731971834    3.41576807387647   -3.98747978397523
H         2.63918097793061    4.20026184142973   -1.72946266609753
H         4.35240511974184    3.84078386364698   -2.06647037084952
H         1.20952047860659    4.47162230730384    1.86265281848625
H         6.66030074437941    2.65856402596214    1.25461223247219
H         4.24418749767050    1.30038039279967   -4.44348365676782
H         6.31507687665028    2.18339719272570   -4.07643184750439
H         5.33724353087470    3.49833588009434   -4.44078182939146
H         5.46097621560178    1.50680179978027   -1.71293288203121
H         5.50370103669697    0.11562638912135   -2.85919252913122
H         3.12434562632211   -0.27577398226110   -2.43261726591948
