37
 energy: -49.839449842844 gnorm: 0.333534097025 xtb: 6.4.1 (79825abcba525fcdf90b791dcacef51065a7a4e7)
C         3.11241894029027   -1.33378239013566    0.43446039296904
C         2.72436688147055    0.12844836246025    0.57352190225648
C         2.87288111129755    0.95117392167925   -0.77367326689136
C         1.40915472468685    0.74152322108202   -1.69107709301771
C         1.01738588176725    1.92685947446633   -2.55811597874198
O         1.89449397265001    2.37490292227131   -3.51582174877077
C         3.15855321960281    2.85465868642246   -3.13049308510675
C         3.13077498109089    3.33152510470247   -1.74516070518656
C         3.14746432162870    2.42092912386705   -0.43337549179131
C         2.26442491244019    3.03059860049944    0.64316542187955
C         1.46214544740978    3.56721647927466    1.51976364509333
C         4.57127872078704    2.40921893718124    0.09862773253408
C         5.75361371866173    2.34963616245845    0.64504342383176
C         4.26335445179730    1.91368942910489   -3.61564505377781
N         5.40192082297015    2.76119681551331   -4.23584445058284
C         4.84592375144794    1.14616718977101   -2.45324931940980
N         3.97343458701804    0.37564059532691   -1.58012236321486
H         2.72856643547899   -1.81203288239526   -0.46433300269533
H         2.66286093106643   -1.96188826478384    1.21405169920717
H         4.20316956036911   -1.46525071508713    0.41728562605192
H         3.39841137770523    0.55253552644671    1.32568372434887
H         1.71400155444274    0.35966791016562    0.92943066370050
H         0.62285590855921    0.57398039993919   -0.95940217052123
H         1.41391631672306   -0.21613681936032   -2.29508840602678
H         0.76033977598948    2.77816847089932   -1.90021769749336
H         0.09571482531375    1.71387925073415   -3.13263635145926
H         3.28884448453703    3.77481143651695   -3.70647356617574
H         2.30776504445210    4.08496616668803   -1.57415785143900
H         4.06406610457593    3.97050712078804   -1.51216290417576
H         0.74456712087872    4.01972614677527    2.16561083824806
H         6.70310084196929    2.64224456030330    1.03794181513204
H         3.80113763905143    1.33061832543964   -4.41579071293359
H         6.08999273718287    3.05994829651072   -3.54441820840744
H         5.84286049567946    2.18121434983714   -4.95379887478786
H         5.49997983938693    1.84091666773582   -1.89318665723205
H         5.52055680529734    0.36125462539426   -2.82206110814818
H         3.62431689380283   -0.51567385337464   -1.99147188514276
