37
 energy: -49.851109061074 gnorm: 0.325907956540 xtb: 6.4.1 (79825abcba525fcdf90b791dcacef51065a7a4e7)
C         2.93050086079105   -1.46595964340888    0.20391147529651
C         3.13585035612419    0.01768217175834    0.45823376420532
C         2.96717682956277    0.91706431801824   -0.83657496394751
C         1.31390801392108    0.82551658820758   -1.37173789965992
C         0.98910503955250    1.95473723874918   -2.33590854819829
O         1.99033628772777    2.04797586300637   -3.27191304755034
C         3.14896220129618    2.82138807097654   -3.08241607907189
C         3.30056339334721    3.42312527408268   -1.69169867656222
C         3.23059129813251    2.37225031378723   -0.49127801977048
C         2.09267980738798    2.90315877536741    0.36527874617590
C         1.37321693617186    3.59101096182959    1.20745928339135
C         4.53312538191207    2.50805702973056    0.28032646243417
C         5.64458171708091    2.98300711477985    0.76932903549703
C         4.33356053133394    1.99440350469690   -3.59620105184671
N         5.53840144012910    2.88409774039311   -3.99123522107094
C         4.76777411062068    0.94200650740876   -2.60445494132114
N         3.73020256143482    0.21201941874928   -1.89180959671543
H         1.89652827485296   -1.59725872037364   -0.10842982970733
H         3.04119070145053   -2.00444584260312    1.15373375901418
H         3.60888534710943   -1.87667308640595   -0.55663093953484
H         4.15930620509225    0.27574063404751    0.75128199819488
H         2.40724264445616    0.32392955466173    1.21738787421984
H         0.63793501170854    0.62227878478759   -0.54503389403131
H         1.28656577450810   -0.10407423526076   -2.01755396864203
H         0.80175904209178    2.91288797625111   -1.81583307497781
H         0.08303389318708    1.61789566938424   -2.87487478606525
H         3.13109521544210    3.74409171259537   -3.66868323008531
H         2.51507187612093    4.21421656804931   -1.51438989087740
H         4.33492953200341    3.93345506224774   -1.74886951863685
H         0.60654959478709    3.99245972475378    1.83024524173031
H         6.42310900046069    3.13346473858054    1.48541029967402
H         4.04887797963499    1.50118453273768   -4.52869247821592
H         6.01644121724069    3.16592946992175   -3.13518936796001
H         6.24220757621836    2.39377521604214   -4.54846655150316
H         5.38571152130936    1.46195198576711   -1.84818353177573
H         5.33906106032972    0.11902566564492   -3.05564601145818
H         3.02833604457029   -0.15582602082148   -2.56827553413085
