37
 energy: -49.853751931437 gnorm: 0.318014725955 xtb: 6.4.1 (79825abcba525fcdf90b791dcacef51065a7a4e7)
C         2.91617374892087   -1.38663699838796    0.42178264585292
C         3.04853398167743    0.12318950052292    0.52640572889634
C         3.00017816239793    0.94439830197214   -0.82900803270989
C         1.38226216764764    0.82013073033669   -1.45748518887502
C         0.99094653063351    1.97477045410643   -2.36519685548981
O         1.88028858320172    2.27164349535209   -3.36928798036598
C         3.12376648230188    2.88804479347766   -3.14500756170966
C         3.35426392456111    3.36584992459886   -1.71524795479976
C         3.26650136548742    2.40312530342341   -0.44414487739578
C         2.03960806964527    2.79526235845034    0.36292214236982
C         1.13795534033716    3.45358399058280    1.03647278527044
C         4.56266489663687    2.55266571061546    0.33560489809001
C         5.71484826794461    2.27394590409023    0.87858280934511
C         4.23115716275178    1.99467486353379   -3.64482354522609
N         5.33230796158215    2.90911349428481   -4.23686944902148
C         4.89902760218076    1.12375000103838   -2.60796281202735
N         4.02247962421976    0.36399428715545   -1.72947880309386
H         1.94244455855316   -1.74204641166293    0.09097838400028
H         3.04165823042897   -1.68864744707040    1.46936335012945
H         3.72825316625772   -1.76814166255353   -0.21248623990439
H         4.03615211666799    0.28989157407736    0.96997550951294
H         2.25499064458803    0.53567998650287    1.15973991469367
H         0.65498123607926    0.82618700441915   -0.64958025296569
H         1.36176786914215   -0.18398589273793   -1.98026131977402
H         0.78923200209961    2.88826400382101   -1.77488283739268
H         0.05821607789094    1.73514408694291   -2.91063693225805
H         3.14991924542340    3.76889201413995   -3.79218189573925
H         2.64277576519876    4.22025592860841   -1.52022041482483
H         4.39088861930130    3.87386548754798   -1.74603321736558
H         0.34621951353400    3.75266400630344    1.68493849942604
H         6.68645876993627    2.40914794234676    1.30191251032885
H         3.78697169297529    1.45220234236855   -4.48284037202361
H         5.87149757041493    3.17949015635752   -3.41410783030696
H         5.99412520584769    2.31564684527641   -4.74289443101683
H         5.48894731191840    1.76387541934070   -1.92504951316087
H         5.60340865364388    0.34986295863817   -2.94290430916235
H         3.58469457182010   -0.43532333397409   -2.23442298595454
