37
 energy: -49.852860403852 gnorm: 0.320380398999 xtb: 6.4.1 (79825abcba525fcdf90b791dcacef51065a7a4e7)
C         2.79992636730621   -1.38826255063548    0.25798859338455
C         3.20489772430352    0.05244786968488    0.51950907480897
C         3.00469253717747    0.90521006835703   -0.80207450610895
C         1.33201262061033    0.83323477733182   -1.27645787975729
C         1.00946770549240    1.84723483991094   -2.36182875637582
O         1.91333487305749    1.93777730872073   -3.39240533322709
C         3.02809545354257    2.77091898238515   -3.19322362766274
C         3.27717449022236    3.37773701731797   -1.80469873071286
C         3.33297587621460    2.40247832480934   -0.54136952376217
C         2.31848026812275    2.86440679578427    0.49198254637034
C         1.35774105650825    3.52580775387000    1.07470412285510
C         4.65957546779101    2.67785466956101    0.14762492157191
C         5.53691963108999    2.73438621422733    1.11048921290716
C         4.29568691963036    1.99606036396685   -3.65993724861757
N         5.38546551409212    3.00131940002267   -4.10836375183738
C         4.81039659599875    1.12555463128359   -2.53880615088987
N         3.83323003514426    0.28632654607201   -1.86194502069843
H         1.76396652690873   -1.61867948634811    0.49797003361682
H         3.39185667852533   -2.07788259532703    0.87315092867435
H         2.95290962228425   -1.63695445791044   -0.80128675665053
H         4.26896323843115    0.06065410160656    0.77956782102307
H         2.61274507226288    0.48254871487871    1.33519291019799
H         0.73815983317352    1.04711481575520   -0.39142747730855
H         1.21242508098051   -0.23072210872306   -1.64477792661755
H         0.76581301500616    2.78658202914239   -1.83089645735286
H         0.06857164692508    1.37899189969951   -2.70877965566452
H         2.92421815376182    3.60635277220468   -3.89084121717844
H         2.58109237917818    4.25043673211263   -1.63699167955049
H         4.36428912942437    3.74814476687357   -1.92552158589369
H         0.49239611456660    3.72881059181138    1.66357609267052
H         6.43972230929218    2.76987081053259    1.68075472065895
H         4.12517763171386    1.42988050726245   -4.57874970082257
H         5.90759898373750    3.37879125260796   -3.31737873601152
H         6.07626638476525    2.45909875871351   -4.63282246698994
H         5.30421505365982    1.76093215141222   -1.77948070909137
H         5.64012291541363    0.49419779442518   -2.88547949266252
H         3.22619235873436   -0.18675072993499   -2.56425278060495
