37
 energy: -49.856159519251 gnorm: 0.326921888796 xtb: 6.4.1 (79825abcba525fcdf90b791dcacef51065a7a4e7)
C         2.91148992569631   -1.43816496743456    0.39615873765712
C         3.00959810112378    0.07437432723485    0.49931369583487
C         3.14806357859461    0.93887705264145   -0.82255278573915
C         1.64671720680947    0.71690721475459   -1.67388503224839
C         1.04914545364345    1.94418379663499   -2.34243681056669
O         1.72253201315014    2.56446862177385   -3.36667269801667
C         3.07179498331905    2.90753548230975   -3.17100941953272
C         3.36045281681497    3.42419298247117   -1.72928832978961
C         3.28961378560971    2.43001552789379   -0.48155557227966
C         2.11850600728170    2.84220102293752    0.39537401926030
C         1.35000056657725    3.40309024462545    1.28691099961655
C         4.49774357377070    2.67725056725635    0.40710027931502
C         5.47999347593806    2.49660278434085    1.24530537418092
C         4.05654355049573    1.89344399961396   -3.63361513150688
N         4.96837559072737    2.65332242609173   -4.62880182288775
C         4.90288260919222    1.21046724198799   -2.58628797815270
N         4.29642620010021    0.37029655650038   -1.56470924924686
H         1.95718395171871   -1.65312119410896   -0.08027570221015
H         3.04673373041365   -1.85021375473217    1.40427922069357
H         3.73734640397059   -1.90440265573537   -0.15872801072779
H         3.94586707051724    0.33161281309073    1.00642521261682
H         2.15451931351961    0.47164852744473    1.05786995667812
H         0.90110042743743    0.37437836654226   -0.96085331928242
H         1.88740412172774   -0.07053228754997   -2.45104262959440
H         0.90930195904853    2.64375614522341   -1.49705394915988
H         0.05155015581585    1.63613890437710   -2.70962032961784
H         3.15872691291971    3.73923344616581   -3.87537562281265
H         2.75606321921976    4.33886734807269   -1.46031847940838
H         4.44067055139514    3.83250903563781   -1.72419396360113
H         0.51592446989946    3.81551501269279    1.80751173819370
H         6.31361925678655    2.43968568019854    1.91114551249122
H         3.54045367965480    1.17237166462181   -4.27201571316439
H         5.40292782763547    3.40219518744793   -4.08924682515051
H         5.72008912049076    2.05006617265122   -4.97125572130220
H         5.60392333503199    1.91903316097261   -2.10606654178397
H         5.60867780124933    0.55645742123315   -3.11672546525554
H         4.03304663336025   -0.58309064261792   -1.89214946007802
