37
 energy: -49.849936537487 gnorm: 0.328315707376 xtb: 6.4.1 (79825abcba525fcdf90b791dcacef51065a7a4e7)
C         2.49864882109425   -1.25768948502434    0.45649766419624
C         3.15467089801700    0.11153640055550    0.51031946509742
C         3.05691431665289    0.89869900548215   -0.86251968424408
C         1.48231202459273    0.76455111477163   -1.59101820598656
C         1.05980393341592    1.95289145172065   -2.43930792380429
O         1.87399153822442    2.28974165255378   -3.49329671042923
C         3.12621588892819    2.84798551471487   -3.18218978689498
C         3.39823792241022    3.36358534036189   -1.78266441173954
C         3.26114253058026    2.37210174872917   -0.53831351095271
C         2.19022516409771    2.92724928709855    0.38653408018687
C         1.38246355348540    3.05128800250297    1.40249230763702
C         4.49836535248134    2.67573454635855    0.29084199890987
C         5.43873697866912    2.81843244309821    1.18267984918795
C         4.26060869333335    1.91158697781443   -3.65250050321851
N         5.33902758585195    2.80471194324188   -4.31476172941890
C         4.92999029351437    1.11441219872528   -2.55884522624128
N         4.03562908702545    0.27145121417381   -1.77984967610339
H         1.41799309198118   -1.23156694570678    0.33241440623365
H         2.65645062246114   -1.67374955796710    1.45967990354386
H         3.12985569222899   -1.88349688383820   -0.18945805693715
H         4.22976945754479   -0.07529931124221    0.60617777820064
H         2.73234319473581    0.71297285049280    1.32326788129251
H         0.76295340513911    0.71216402292484   -0.77771421211198
H         1.45151983207901   -0.24367105067680   -2.10531869971818
H         0.95508755821430    2.76032735426322   -1.69050113945090
H         0.06875176145368    1.64024200417716   -2.82006727818030
H         3.23936408831714    3.69944351052866   -3.85867125605680
H         2.82297135588528    4.32489351761505   -1.64404359341980
H         4.50009625912966    3.67680609477039   -1.92901766365156
H         0.68232559769904    3.36294673466330    2.14376010895055
H         6.27132030452651    3.00579912721336    1.82549659000180
H         3.81040198205621    1.34091039934024   -4.46827714522494
H         5.90082605156155    3.16257973361856   -3.54205299811914
H         5.94243499884084    2.24321088024470   -4.92046963005308
H         5.40409669773158    1.82428643440224   -1.85497160419498
H         5.68843089465197    0.41595418310808   -2.93853441686169
H         3.49068703024228   -0.29201645766660   -2.46619898720970
