37
 energy: -49.856822898832 gnorm: 0.321414485261 xtb: 6.4.1 (79825abcba525fcdf90b791dcacef51065a7a4e7)
C         2.50578852013974   -1.22573967405971    0.46121004673168
C         2.76562554670406    0.26197910456235    0.62619135760744
C         3.05597438672387    0.95865687810170   -0.76815661797660
C         1.57720135526866    0.82373851205053   -1.67540822986630
C         1.07997679522874    2.09118512018745   -2.35113607571268
O         1.86111511542198    2.65645512438814   -3.32968327602414
C         3.23122000930400    2.89060515594093   -3.11879018801863
C         3.60740464649753    3.40345975711084   -1.79304887945753
C         3.36967150529908    2.47232661793199   -0.51762031313806
C         2.26355568629441    3.06038344126683    0.34324710683528
C         1.40628823895503    3.70846642855091    1.08156713452802
C         4.66555192564391    2.56435253273009    0.27145327836438
C         5.60974196511966    2.68274372385374    1.16281455115616
C         4.12833595615398    1.64307606730689   -3.53659351141924
N         5.23500760348756    2.14118506629785   -4.49909791842564
C         4.90005909541384    0.98721494492213   -2.41680299326140
N         4.18221412753109    0.23377796777041   -1.39978255098015
H         3.37446372443302   -1.69074481171186   -0.00038442712622
H         1.59216824524113   -1.38479868985706   -0.12562913139153
H         2.32101278313907   -1.71972816951780    1.42513385163712
H         3.60517727264746    0.40807646643758    1.31448037575567
H         1.86693496070551    0.71388911259490    1.06105247918872
H         0.81867324891901    0.47792494292355   -0.97774591566400
H         1.76616500651274    0.03095187602314   -2.46137717347418
H         0.93527844667455    2.80159259495048   -1.51566407492345
H         0.09043113760836    1.83174720958200   -2.77351402577690
H         3.38926549875272    3.69990014031829   -3.83675513376783
H         3.10734919744833    4.40552954114507   -1.65141042052487
H         4.74885015441920    3.57356449624809   -1.75080154598775
H         0.52458062601596    4.13812777584018    1.49964013845809
H         6.61611596692648    2.64925797233818    1.52003251909203
H         3.56737301600030    0.85474774067494   -4.04424338977949
H         5.71333463537280    1.34182816139744   -4.91502753272930
H         4.86568622699876    2.66577648287418   -5.29576069352031
H         5.57802662356374    1.74611920731490   -1.98256718153736
H         5.50855118578191    0.23285482171965   -2.93441076664935
H         3.78536997600467   -0.61762313478693   -1.85051963770711
