37
 energy: -49.854099612725 gnorm: 0.323963393897 xtb: 6.4.1 (79825abcba525fcdf90b791dcacef51065a7a4e7)
C         2.46326191644159   -1.31765363200453    0.45427774979809
C         2.83348668731393    0.14935707025893    0.59158942346207
C         2.97327031153869    0.97268054466498   -0.75617451743324
C         1.44679593002732    0.94894008771340   -1.59127360357793
C         1.06554164369344    2.20172965215584   -2.36291131967957
O         1.90608221207069    2.47940201710212   -3.41345950348100
C         3.25121666490734    2.81556764113406   -3.18087504792459
C         3.58837758157786    3.34771264403923   -1.81201559127795
C         3.33113107085497    2.44888437307714   -0.51734341850127
C         2.35637195678363    3.23707847526960    0.34230223740950
C         1.42074217141711    3.50631875538039    1.20956353078426
C         4.55350449949601    2.52615797237104    0.38279212224553
C         5.62088165333108    2.77604167392429    1.08869616209924
C         4.22183869940889    1.65528811836676   -3.59509732351784
N         5.30884106356209    2.16377225642844   -4.57444362842176
C         4.95604134712482    1.00205318932130   -2.44885484512177
N         4.12482454102020    0.34998314381590   -1.44826375335729
H         3.18518770170752   -1.84859005579237   -0.16283287339970
H         1.49453190359239   -1.31143519549468   -0.06138249820298
H         2.44913322100916   -1.76165865715897    1.45925323497314
H         3.81553920548817    0.25515463528086    1.06520639823088
H         2.03750118701066    0.70832552575083    1.09649829514009
H         0.76976007794594    0.82422139978832   -0.74999343563612
H         1.39993063997289    0.01471845403631   -2.22923808177834
H         0.94590560984973    3.10090307898865   -1.72982031203873
H         0.10660387318196    1.95391065142669   -2.85680995869651
H         3.43031672559740    3.66284158569220   -3.84830327845337
H         3.03818632679170    4.32550718268953   -1.68764441110288
H         4.69574150531699    3.67536172878511   -1.81510240150209
H         0.68365912909987    4.01228526619430    1.79051859474503
H         6.33906924943714    2.91408328919771    1.86758362891633
H         3.55263490400196    0.88344621280296   -3.98275145122973
H         5.94076847072954    1.38960249838091   -4.77961329642786
H         4.91918823895601    2.42978775118586   -5.48200764461899
H         5.62287997382062    1.73812209446493   -1.96134566419942
H         5.56493299595544    0.16146927623614   -2.80928413285801
H         3.79791995460553   -0.58986628230990   -1.75705087540398
