37
 energy: -49.851966346811 gnorm: 0.307336161743 xtb: 6.4.1 (79825abcba525fcdf90b791dcacef51065a7a4e7)
C         2.65534910210587   -1.39009843230011    0.32648056943120
C         2.74024800421054    0.11386379227582    0.52379017497679
C         2.93629660320289    0.91964103560754   -0.82756345232577
C         1.47162729711689    0.83091983009975   -1.76295134056556
C         1.06624431766882    2.12802472808326   -2.44371915106937
O         1.93733053523872    2.47022597379739   -3.44938757786098
C         3.23564600024239    2.86742007287998   -3.08455425579492
C         3.35732746020828    3.41897814692930   -1.60867069255262
C         3.20269640708471    2.36567442195647   -0.41834110974242
C         2.13291744754846    2.92682552352797    0.50419791751762
C         1.70185337961376    3.72706240241076    1.43899213581098
C         4.51784222499127    2.35285070085911    0.34365561193588
C         5.63688174592341    2.81499057966962    0.82761176308088
C         4.27921799275014    1.75231468069279   -3.47617399279870
N         5.29700444245035    2.42653657180999   -4.42947616292893
C         5.00414390454927    1.11614480625207   -2.31453225246920
N         4.12853293817646    0.31926529225734   -1.46860806467197
H         3.58926759434818   -1.82134879194151   -0.02808285770056
H         1.86872415599326   -1.59010094192951   -0.41216832437949
H         2.32270228778974   -1.91275903599748    1.23394285424638
H         3.52212399930693    0.36116537641170    1.25004437742830
H         1.82612831521467    0.43179784491576    1.03786677606028
H         0.74566878473529    0.49118056207775   -1.02861757111447
H         1.63981044304286    0.03528866368551   -2.55076513076200
H         0.76890492076738    2.96669260812752   -1.78656214859651
H         0.10998321539386    1.88569679716015   -2.94546973506242
H         3.44667315136140    3.71010479570074   -3.74845214792767
H         2.51105387204681    4.16587655731050   -1.59368609670586
H         4.38961617177405    3.93632773594901   -1.59002341364296
H         0.98992150502451    4.36148108351181    1.91592841319408
H         6.64422587784682    2.68756294172621    1.16007920348920
H         3.78061308629377    0.99530592394649   -4.08623977542070
H         6.04351372325296    1.78431315177132   -4.69600688779175
H         4.82142817967028    2.50615900887275   -5.33155902856222
H         5.54019150960009    1.82201913069251   -1.65231567779027
H         5.75561476722947    0.45318005092974   -2.76509734438560
H         3.80959678409559   -0.53009511921611   -1.98085767190507
