37
 energy: -49.854642271143 gnorm: 0.325336387075 xtb: 6.4.1 (79825abcba525fcdf90b791dcacef51065a7a4e7)
C         2.50294591389893   -1.22443982479095    0.41521001288636
C         3.03976830369159    0.18152181347299    0.62289937498617
C         2.93403242982222    0.94455520881147   -0.76291035533012
C         1.27110531152383    0.90585346238288   -1.27404018756553
C         0.99300937779118    1.96266645961559   -2.33048243860350
O         1.95979859951707    2.02298232118631   -3.30461922251581
C         3.17607657673741    2.71876905908096   -3.19043406767509
C         3.56295660714838    3.32865060250962   -1.85933710354040
C         3.33525749643636    2.42742369515722   -0.56080440139270
C         2.30134759038755    3.19618535923099    0.24568897693568
C         1.38117384380616    3.73913165857165    0.99303432162367
C         4.64880798136256    2.48567730681841    0.20182497983939
C         5.67837209118375    2.60419500096350    0.99301870977632
C         4.37256157662860    1.79163556541336   -3.61214759429331
N         5.56910049449046    2.66127442174223   -4.07179128346443
C         4.81621341628771    0.90076233673332   -2.47673614655181
N         3.76518820795971    0.21060262509872   -1.74439412238437
H         2.85760060555489   -1.67274163056412   -0.51060929319954
H         1.40930004316479   -1.14983976653353    0.36271678542918
H         2.82231995517413   -1.88907137212602    1.22981478597620
H         4.08019783503096    0.12645817383676    0.96114144524463
H         2.39761039031750    0.68767669581486    1.35256509924607
H         0.67612428452098    1.07110558325847   -0.37940398696149
H         1.12074629086401   -0.15996679933693   -1.62530138196665
H         0.85412781842850    2.94914933808449   -1.84965679521739
H         0.03905518859602    1.76752390939013   -2.85660272968683
H         3.18990115280579    3.55661513246284   -3.89273973489674
H         2.95387029398181    4.27173996609530   -1.74162102410412
H         4.68804891138724    3.52973506435552   -2.02471741555202
H         0.67138820915515    4.24321652190091    1.60858694159885
H         6.55215798451673    2.90132727797118    1.53127998491858
H         4.10137065956045    1.22182320150957   -4.50412221626079
H         6.45175789427929    2.19607882290111   -4.28456962896529
H         5.22572634092688    3.16045687018274   -4.89591329174449
H         5.44380280377603    1.48384571896967   -1.77653494764121
H         5.41072872853030    0.06815257701163   -2.87742574975103
H         3.18336923796132   -0.32997777493338   -2.41877721576429
