37
 energy: -49.853760373945 gnorm: 0.317266946443 xtb: 6.4.1 (79825abcba525fcdf90b791dcacef51065a7a4e7)
C         3.14007508141262   -1.39899832214912    0.40128797213286
C         2.96490386619262    0.10387959538132    0.53808814719697
C         2.94718560821277    0.90157407756862   -0.83203528608170
C         1.37367882465481    0.85728860422262   -1.57378546654017
C         0.96097762091669    2.09522427481668   -2.35317900070129
O         1.81267815967296    2.38321614302391   -3.39189395306944
C         3.11818140788477    2.82624566631195   -3.11643858012803
C         3.32198933498729    3.40595089045146   -1.75072977879954
C         3.25948319221416    2.38108440995640   -0.52762482638973
C         2.25965496901665    2.83131927211789    0.52500422270751
C         1.43810213569783    3.22034558976416    1.45974752963085
C         4.61834838228436    2.47596892817449    0.14683376700299
C         5.50798860232968    2.97821471997566    0.95697311054547
C         4.21696289112468    1.86890270179914   -3.60264783480639
N         5.27534472613973    2.75257371599710   -4.30848271164099
C         4.82901504438363    1.00490742367203   -2.52629030075376
N         3.88264928819892    0.21565245159197   -1.75248948594743
H         3.97313296261990   -1.49517616789957   -0.29200867103780
H         2.20621627443985   -1.82903870201623    0.01741950702284
H         3.44569255874678   -1.80832744860367    1.37410009791351
H         3.75527257505967    0.54344009604805    1.15617971198536
H         2.03241492465925    0.31579890931491    1.07336956669861
H         0.61531680738418    0.61058394369720   -0.83506462713000
H         1.49021627880537   -0.06920411079951   -2.21409426926075
H         0.78860699453272    3.01895536199468   -1.76953604298650
H        -0.00740538368495    1.84539699488120   -2.82723855103294
H         3.22042706990604    3.61016502407784   -3.87170454448415
H         2.58927818920804    4.24920669830339   -1.58851145838372
H         4.37691282420561    3.87560152503710   -1.73720120724458
H         0.57413329827494    3.55579146105697    1.98684919748484
H         6.49899546373769    3.20617222466190    1.28477705386692
H         3.80252018159630    1.22935116944331   -4.38562960200536
H         5.93578601447595    3.04363996844268   -3.58746718043195
H         5.75444567661627    2.12915506698284   -4.96275901261032
H         5.44510273358487    1.66327170948576   -1.88509702626685
H         5.54930752897666    0.32224125797987   -2.99786772751001
H         3.46001624277241   -0.52884068168502   -2.34632811956809
