37
 energy: -49.854787127969 gnorm: 0.326698691798 xtb: 6.4.1 (79825abcba525fcdf90b791dcacef51065a7a4e7)
C         2.69005664538772   -1.33219847833128    0.35369691941370
C         2.77093360432931    0.17908587139203    0.48605933592761
C         3.04118793262065    0.97879247880362   -0.85606606286287
C         1.57948941888205    0.86462198917582   -1.79333906763587
C         1.10779636243204    2.19794463069064   -2.35013138376054
O         1.92676594313667    2.54780854721256   -3.39614569625084
C         3.25603168699174    2.90145872795668   -3.10550212768380
C         3.53431076209495    3.44042068928617   -1.66672568090900
C         3.32155562136464    2.41682796632533   -0.45956485191480
C         2.30218938755908    2.84112438313605    0.58506946647223
C         1.34123187728025    3.47314986506082    1.19918678476071
C         4.52023462401052    2.55782914807673    0.46439363604780
C         5.48248019058060    2.84697767477254    1.29536474229434
C         4.13381599465611    1.68793294091132   -3.53553642984904
N         5.10741693419908    2.18812082877726   -4.63151212790741
C         4.97214894177062    1.06046858869129   -2.44781974958433
N         4.17800792756142    0.28683486247481   -1.50541316873043
H         3.58850880513332   -1.74926910238071   -0.09656040487267
H         1.85495723034391   -1.61880263264482   -0.29810751743513
H         2.54152619202339   -1.81522284083090    1.32937205895891
H         3.62466899821731    0.39363441426911    1.13800880646034
H         1.89673711729825    0.58807681149908    1.00517255355768
H         0.83250337396627    0.44963965175965   -1.12141189474239
H         1.85678677471502    0.12457172864467   -2.60413921586775
H         0.98004501401509    2.96858587418913   -1.56691907337744
H         0.11531320192594    2.04324925267205   -2.81484450686494
H         3.50733639651094    3.72233963373044   -3.78256260748180
H         2.88657308397116    4.34713540962838   -1.48626772321343
H         4.64193577798158    3.76108051254042   -1.72967330230468
H         0.71307461750087    3.94887625602654    1.91745213084048
H         6.37737120659022    3.05415792239978    1.84103954750336
H         3.48646615406151    0.93351658355676   -3.98901577163137
H         5.92149415043150    1.60698862938001   -4.83233370973934
H         4.56819211509068    2.45008312774778   -5.46029337713505
H         5.47583042376399    1.87448437911799   -1.89300478358282
H         5.63025396142582    0.33256253057418   -2.94207695006861
H         3.81325055872487   -0.54767142521171   -2.01146095012807
