37
 energy: -49.853856202555 gnorm: 0.322258523734 xtb: 6.4.1 (79825abcba525fcdf90b791dcacef51065a7a4e7)
C         2.46723568239371   -1.27316383225993    0.42711912658224
C         2.62991777185325    0.23102437021232    0.56493663960305
C         3.01443985236566    0.99274680376294   -0.77139803026681
C         1.55086933843194    0.81323371228162   -1.69541888073050
C         1.09049849830549    2.08178187858229   -2.39477968075071
O         1.94032850431492    2.45570582863592   -3.40731694754411
C         3.26990776927978    2.84786315196319   -3.17296429868149
C         3.56057945942518    3.42390121276805   -1.72475413414678
C         3.36539322847127    2.47271043786804   -0.45692826700561
C         2.24318095412552    3.02194962929120    0.40873432065352
C         1.54659478236865    3.86016514284695    1.12441436352711
C         4.66043332752142    2.46793361548258    0.33884821891984
C         5.70176175863483    2.67249394523748    1.09636152103254
C         4.15890150041692    1.68095373069494   -3.48274311562768
N         5.21158872558767    2.16201654113459   -4.51214955711143
C         4.94699804273970    0.98993359670388   -2.39598820559453
N         4.15758689229964    0.28794057242849   -1.39532088529985
H         3.42586818813916   -1.66581342643713    0.09433411788177
H         1.65520312384269   -1.54111210201277   -0.26076810747852
H         2.24824639592809   -1.64286686359850    1.43839513704014
H         3.42810510847246    0.37014177087673    1.30214531879983
H         1.69999627600807    0.62677740708213    0.98872569699153
H         0.77511445059405    0.55606371964167   -0.97865353121442
H         1.66230625700583    0.01542866773856   -2.49106579749897
H         0.98694446516291    2.93754482196124   -1.70154364349873
H         0.13425572003951    1.80036245202845   -2.87573147257664
H         3.48111720152986    3.62193582515977   -3.91567048832676
H         2.84549441204949    4.27699458944277   -1.53728193447304
H         4.66070423605324    3.77509901382672   -1.72278375856099
H         0.83788427835391    4.31637399825226    1.77741141901219
H         6.66798912861405    2.85860380866437    1.51263348447242
H         3.56884717265838    0.87717384841767   -3.92953519359657
H         5.63677922611971    1.39255374480398   -5.02974563342864
H         4.76512351982513    2.77312939500029   -5.20024541568221
H         5.60664802560745    1.72506761996691   -1.89741398159868
H         5.61815533650742    0.29119466229907   -2.91420767180485
H         3.80036834262249   -0.54842874393549   -1.90366556541596
