37
 energy: -49.855281446056 gnorm: 0.324460952621 xtb: 6.4.1 (79825abcba525fcdf90b791dcacef51065a7a4e7)
C         2.57265674103078   -1.32090308125070    0.40551962432389
C         2.99052991837556    0.13589262335054    0.51120576477172
C         2.96767774175180    0.94104150436889   -0.85447417704180
C         1.30280995332792    0.89869981112300   -1.35895466171117
C         0.95910365446045    1.84698650478302   -2.49600330446286
O         1.99902106122688    2.06245476357698   -3.36744297117552
C         3.12442735236197    2.87117407203636   -3.13096186816426
C         3.28802849032998    3.40396333344669   -1.71550772146232
C         3.31705033307358    2.37490987492659   -0.49466754177972
C         2.32543627470312    2.83309871973670    0.56229055714918
C         1.30231485803201    3.41215034137898    1.12616760665121
C         4.67871800704166    2.50887826724015    0.16739408384196
C         5.89890948088645    2.59718780674834    0.61836026157062
C         4.36309950184387    1.99692523715062   -3.57180842816968
N         5.49545711094863    2.96217523840793   -4.00228272886786
C         4.86106189668382    1.01569966801500   -2.53794622465016
N         3.87129864545173    0.24598906168201   -1.79956045456337
H         3.21557742905822   -1.84431308213822   -0.29917236993203
H         1.52358778353899   -1.32978502332753    0.08340562008876
H         2.65522737779979   -1.78180577166600    1.39953502068496
H         3.96877390257872    0.29337116796208    0.97829518612480
H         2.24071815065873    0.56050502729195    1.18830120796751
H         0.77459202030186    1.09052825452379   -0.42843207686776
H         1.17293395573671   -0.16680029137264   -1.71924183731279
H         0.54541255113204    2.76600571234106   -2.04005021089034
H         0.17789725075465    1.48604373166441   -3.19195491198852
H         3.12628194409239    3.71358982595852   -3.82791428392075
H         2.45877997345423    4.11977924028431   -1.44308295726103
H         4.22899117750843    4.07252246373049   -1.68034782269691
H         0.60884599265815    3.73994279772831    1.86674530576755
H         6.90772371802913    2.80375407697346    0.90320900307111
H         4.08402194938019    1.45037227560422   -4.47582444004489
H         6.18418676500130    3.14168114362579   -3.27139645281865
H         5.97297341293434    2.53092926136585   -4.79743749325044
H         5.42676050127157    1.48998436015523   -1.71382517258733
H         5.51057370578593    0.27367078532267   -3.02247400885747
H         3.26035077758577   -0.37027279480764   -2.37618604050977
