37
 energy: -49.856353971536 gnorm: 0.326311630003 xtb: 6.4.1 (79825abcba525fcdf90b791dcacef51065a7a4e7)
C         2.54285330850540   -1.32218365853343    0.52949797490650
C         2.86246155110249    0.16055826238834    0.61533645387695
C         2.95646434684111    0.92945863167888   -0.76807394874739
C         1.44193431292340    0.91727909292207   -1.62488697725442
C         1.08514705405740    2.12235874422294   -2.47972449080702
O         1.94262563556314    2.46556186336725   -3.49668268912370
C         3.25647972873679    2.82782210503591   -3.15165444225577
C         3.51828402814582    3.37817148777479   -1.77129187784475
C         3.29961481134996    2.41800493453205   -0.51410931267856
C         2.23631322434458    3.09196315616175    0.33769223375875
C         1.45687630677467    3.74947247593157    1.15021617344508
C         4.51266594269566    2.54725762078650    0.39265014553078
C         5.68089706963852    2.56344124353396    0.97145098184945
C         4.22068071188155    1.70779702614260   -3.53735613286273
N         5.28840369772228    2.28703274815922   -4.49845084576359
C         4.90461488957212    1.02671150682027   -2.37632306880769
N         4.07406668693534    0.25330888747740   -1.46564347220384
H         3.40253249277780   -1.85481139353807    0.12805651860521
H         1.69261387954926   -1.58834250562115   -0.11130962465307
H         2.22641082349418   -1.73117849557578    1.49898401665984
H         3.87345212643955    0.33031630867516    1.00135921791184
H         2.25217448418064    0.72105080910871    1.33253197855040
H         0.70411191869196    0.80694259841410   -0.83423623913886
H         1.54348556544003   -0.03749692475150   -2.22493296798687
H         0.95845319639330    3.01722180631887   -1.84191682177178
H         0.11320154091763    1.91449487829008   -2.96657796281735
H         3.43409328739751    3.70031223098795   -3.78618168018772
H         2.83411459656194    4.26456695750479   -1.62819741529262
H         4.60306768988116    3.76808522040766   -1.70179369825766
H         0.78908170386949    4.12688197370306    1.89076643265034
H         6.53416002090019    2.90499345095387    1.51624364129838
H         3.66675373684587    0.97135450480614   -4.12443933721731
H         5.89316359756432    1.49967101796859   -4.73316902627077
H         4.84105347739762    2.72494507782875   -5.30738630832043
H         5.53555682225169    1.68177198144481   -1.74628779921013
H         5.62021512856320    0.29491050268133   -2.77585180967851
H         3.69664132306469   -0.55869748972812   -1.99830544507788
