37
 energy: -49.853179320488 gnorm: 0.334096425330 xtb: 6.4.1 (79825abcba525fcdf90b791dcacef51065a7a4e7)
C         2.53644293926410   -1.23733337575247    0.59212311275445
C         2.71700910415312    0.27106786270459    0.60488404591339
C         2.96626801465506    0.97684909666358   -0.79283248159696
C         1.51614391450503    0.85430794373948   -1.74687749690201
C         1.10697591703928    2.15333495360865   -2.42168981647655
O         1.89992392398769    2.53267839615391   -3.47743310298364
C         3.25419797414664    2.81086253116157   -3.22239401544870
C         3.43496324741430    3.42496343754729   -1.77798138514634
C         3.31087275217819    2.42185061431153   -0.54161160865753
C         2.38893692107424    3.05319688913887    0.48884078877279
C         1.57942644870166    3.62249510916273    1.33773880043616
C         4.57755758475147    2.44695847555279    0.29820455748733
C         5.69712603058784    2.65933845783383    0.93184287789175
C         4.23818092519358    1.69784371733641   -3.52658244569949
N         5.29147115998409    2.17712540202659   -4.55620285700750
C         4.92941082737173    0.98490370369720   -2.38923510240488
N         4.05487250975526    0.25142335121442   -1.48674490305191
H         3.48304976695685   -1.73505186943593    0.39185413942189
H         1.86166074740716   -1.56293368363921   -0.20977178760527
H         2.14607125500209   -1.52816241440748    1.57718363204880
H         3.58234043103269    0.55016738346643    1.21581650075511
H         1.88451139803755    0.81741991947945    1.06250683720788
H         0.68979910679726    0.56938669868839   -1.10061225706022
H         1.75633279507466    0.06338449292045   -2.52064392718301
H         1.02254342862488    2.90959556316724   -1.61883808565954
H         0.13130597147602    2.01980713152257   -2.92681380987427
H         3.45540478319664    3.66745958906559   -3.87136836946997
H         2.60846251641155    4.19347503727896   -1.75458838998890
H         4.46177655866191    3.95183713288434   -1.73703207407590
H         0.91769610407829    4.19977858623089    1.94243629243645
H         6.44643198882679    2.85142457937208    1.66883551342795
H         3.56730392584117    1.04765829273686   -4.09317959990034
H         5.95322902466627    1.40159300583109   -4.59350816330311
H         4.82851277719001    2.24688115568685   -5.46563657164900
H         5.44537751192506    1.67582827924493   -1.69602661992003
H         5.69507056466993    0.30876082252717   -2.79400120458456
H         3.66930508408801   -0.63595173104287   -1.87331477125065
