37
 energy: -49.856433277857 gnorm: 0.317710356441 xtb: 6.4.1 (79825abcba525fcdf90b791dcacef51065a7a4e7)
C         2.79449236428346   -1.48655757423030    0.22501331774344
C         2.86321991675986    0.00125221804174    0.52457937570081
C         3.02152179523372    0.87672951633893   -0.78780344247004
C         1.61957947381162    0.63058042881858   -1.78882616217191
C         1.03729074444940    1.88944655100669   -2.41048298972301
O         1.81062508386472    2.40188699451980   -3.42370590077003
C         3.08202843844032    2.87973139982518   -3.06081778251566
C         3.22171611755011    3.45387455935632   -1.60071076427900
C         3.17406617818027    2.37801980873756   -0.42151184601149
C         2.13133231425177    2.87761370500458    0.56515318980010
C         1.61904212760988    3.55228728121213    1.55631913290132
C         4.52233906076137    2.60452789226658    0.24276700591243
C         5.69524325028249    2.94316013827560    0.70065369826818
C         4.14078176829652    1.89777310697979   -3.54456077693162
N         5.09860680235953    2.59650607082646   -4.54135207541243
C         4.91663493074578    1.26228574975574   -2.41591162456023
N         4.24585659934418    0.39003919820720   -1.46378682190070
H         2.27942188409088   -1.74744402556632   -0.69723204376264
H         2.26868107502703   -2.00878193017491    1.03444905226960
H         3.78807856043993   -1.95544740322224    0.24065324587624
H         3.74395194590317    0.23179808725439    1.13375341256930
H         2.00087704932951    0.39701179584444    1.07295037723724
H         0.86381095963960    0.19316320580902   -1.14139682754033
H         1.78699117684664   -0.12871861859640   -2.61187134338381
H         0.84760590816735    2.65258405827750   -1.63249156031532
H         0.08681171630825    1.63064073029955   -2.91498366850116
H         3.19066175059647    3.74118822776106   -3.72527346116476
H         2.41943533504372    4.24664044313321   -1.55457437400118
H         4.24584535676185    3.98751985434164   -1.60015205208941
H         0.86824769426832    3.96181706658035    2.19302578098615
H         6.66508376096348    3.10015633229603    1.12050631819083
H         3.65675335921048    1.07929041131109   -4.08275400047703
H         5.63001751529376    3.31532461171666   -4.04975446115288
H         5.72130009521377    1.84531004062879   -4.84831070119921
H         5.43136756989017    2.02880553925014   -1.80629362008982
H         5.74941519525324    0.63465723206993   -2.76203169244960
H         3.96937812462154   -0.48317084863196   -1.96037206783420
