37
 energy: -49.855689755377 gnorm: 0.321403855270 xtb: 6.4.1 (79825abcba525fcdf90b791dcacef51065a7a4e7)
C         2.35188557946742   -1.20538394735139    0.48773687210712
C         2.84913386800771    0.22422566713813    0.61812769668445
C         3.04144354086350    0.99246558492210   -0.75544176435024
C         1.61175402727094    0.81023260653121   -1.73056081726175
C         1.15149564208552    2.10575108807943   -2.37867760599514
O         1.85992449082531    2.64886612344185   -3.42290770547915
C         3.22258723078617    2.85478848429687   -3.14499442679656
C         3.61481855695425    3.39441067029504   -1.78550233412892
C         3.38006278607028    2.47898597438725   -0.49820618493088
C         2.31973884849361    3.07050808667491    0.41623929182080
C         1.30664220657632    3.41596678819509    1.16077203725352
C         4.64696125850490    2.67572856046593    0.31829403094500
C         5.61978768614254    2.65540981132391    1.18618351044386
C         4.14045824360561    1.62170668528528   -3.54782154762681
N         5.13208878432840    2.18688304147193   -4.59495764216151
C         4.96983035071434    1.04227746484564   -2.42708745497067
N         4.18191978625611    0.33225861521448   -1.43091004511022
H         3.06276539570213   -1.79419899311143   -0.08832091631991
H         1.35285254805870   -1.41712139851992    0.08588832842279
H         2.43642213222825   -1.60955417630460    1.50597839823684
H         3.80096991614449    0.21577801791793    1.16022555389445
H         2.16170235088170    0.85136223996548    1.19701391002249
H         0.76519507840255    0.40285895180123   -1.18368855724736
H         1.80449204842665    0.09494620583204   -2.58682159070185
H         1.00849818774647    2.85662112967031   -1.57906784806698
H         0.15362594847638    1.99779968197304   -2.84506193151134
H         3.49014329656608    3.63439281705927   -3.86335453690371
H         3.05754313008650    4.34549453327577   -1.54230622627628
H         4.74349293249892    3.62064486478772   -1.87786329472987
H         0.62529835577944    4.01229230833935    1.72377174435182
H         6.47316655102936    2.78531181702256    1.81577431325512
H         3.50199624822756    0.88622582937009   -4.04308265129328
H         5.79945904391019    1.44238019128880   -4.79768429948302
H         4.60625419839993    2.32616770251036   -5.46119305019721
H         5.50079637129637    1.82121890762654   -1.84789689691703
H         5.70883095096074    0.35257730764893   -2.85770495638929
H         3.90671043105413   -0.58409332273801   -1.84333212980073
