37
 energy: -49.854180181371 gnorm: 0.321457176492 xtb: 6.4.1 (79825abcba525fcdf90b791dcacef51065a7a4e7)
C         2.41715032322740   -1.31222166728639    0.41442062076667
C         2.94090866836915    0.10817591222638    0.54165736611485
C         2.98156301530201    0.90368140390973   -0.82924995477657
C         1.36079455973791    0.85056958559268   -1.46041307080892
C         1.04381297547276    1.98548104103555   -2.42049637572914
O         1.96765129234187    2.21131921648402   -3.41184987410018
C         3.20412936906810    2.84013412373728   -3.18336939314280
C         3.43447036485429    3.43464816209896   -1.79656077604518
C         3.24816166690751    2.40385436980418   -0.59115743014009
C         2.20059126975913    2.94817583665043    0.36629032736552
C         1.58677839530971    3.39500322419018    1.42629717433583
C         4.58217430658819    2.52202536627602    0.12777083128068
C         5.49767779055828    2.86017009302505    0.99237927844211
C         4.35800824498075    1.85094153487058   -3.53697997543400
N         5.47000005194900    2.66753875607381   -4.24117642734045
C         4.97834037983550    1.08430933117135   -2.39369334182309
N         4.00604593643218    0.26465394005735   -1.68651033063354
H         2.96633100192145   -1.84225925525080   -0.36105122547925
H         1.33725024754480   -1.28992971674273    0.22025344123200
H         2.53369870783470   -1.82880817738932    1.37716184241272
H         3.99735590199572    0.06744323958194    0.82835128655825
H         2.42288716209642    0.63566348087027    1.35059630299562
H         0.71252826180595    0.84751224344747   -0.58781575428620
H         1.35187395884640   -0.11491686411387   -2.05178556780166
H         0.95697987260155    2.87026891196623   -1.76228646093713
H         0.08797099612412    1.81035740375888   -2.95022233573219
H         3.30549817920452    3.60742888752541   -3.95563458177362
H         2.66912056086960    4.24960147630296   -1.64051099167663
H         4.50542553285891    3.85064342565731   -1.67985055853343
H         0.85387160189990    3.96577967261979    1.94961747179296
H         6.44082767749295    2.91046511164738    1.49183226910909
H         3.98774274019037    1.08896597477042   -4.22701335978461
H         6.11250758643870    1.95603701931764   -4.59005319871712
H         5.00246839831150    2.98327945332222   -5.09439854123446
H         5.57813811918486    1.68917942728546   -1.68764006660386
H         5.67364338860357    0.38144722065606   -2.87304520223895
H         3.64296924373772   -0.50622345499323   -2.28605715637044
