37
 energy: -49.856393763512 gnorm: 0.309613596284 xtb: 6.4.1 (79825abcba525fcdf90b791dcacef51065a7a4e7)
C         2.68370635915741   -1.41007924972123    0.20485084881803
C         2.94393617841094    0.06154866312789    0.47804126686184
C         3.14197547462073    0.97156047184544   -0.80512964561370
C         1.81555677820961    0.64302979957695   -1.88251498509378
C         1.11361350105797    1.88369097772802   -2.41005338681675
O         1.73338626023097    2.66899586510422   -3.35156272647413
C         3.07664892731147    2.96567494673733   -3.06153431110640
C         3.25074751074463    3.52511361886745   -1.59302950254959
C         3.18788459174499    2.47910476740079   -0.38797443843862
C         2.03321127249878    2.74724271232292    0.56345992358681
C         1.32280178312573    3.43992950460561    1.40935521719060
C         4.46111260020109    2.60594324430420    0.43252198370856
C         5.68957021951907    2.37611912919972    0.80415214246152
C         4.07860128705298    1.89126658000187   -3.48071988561567
N         4.88243925389698    2.46090809597443   -4.67596149701779
C         5.05445609265049    1.40206253761166   -2.43763406793438
N         4.44217612287017    0.58621360689907   -1.39994287261090
H         1.77143411495953   -1.57024597260407   -0.36611484202930
H         2.53396759444602   -1.87775335965688    1.18629938406447
H         3.51933235710233   -1.89900238781843   -0.31476358975437
H         3.85582169558457    0.16478896127964    1.07615459758182
H         2.14081241376628    0.50938702947980    1.07419949742266
H         1.08884567658033    0.15794550259330   -1.23577793133479
H         2.19610174248323   -0.02777045664699   -2.71147676837787
H         0.77535612792354    2.46162737438131   -1.52959820506791
H         0.22056555120361    1.47903214671294   -2.92350091111865
H         3.29868516334500    3.84293515123290   -3.67515052281439
H         2.41190438408499    4.26251338662169   -1.42918644655427
H         4.28066779855659    4.04135713594139   -1.51318507904805
H         0.47089271270697    3.61212968067761    2.02693135116109
H         6.59010461190621    2.39730119442612    1.37869867066907
H         3.46695515574582    1.08750648221490   -3.89750290465035
H         5.58438711912780    3.03502032055075   -4.20859654007833
H         5.37980485985757    1.67906965260315   -5.10911518008396
H         5.64235470590261    2.25474360069125   -2.04847264401975
H         5.81474338628944    0.79981375496830   -2.95386973245485
H         4.50580271756298   -0.43253879568120   -1.60881660920734
