37
 energy: -49.856670302982 gnorm: 0.323400724090 xtb: 6.4.1 (79825abcba525fcdf90b791dcacef51065a7a4e7)
C         2.62160561032083   -1.39092915965563    0.22884760871156
C         3.05743400899880    0.04699653754553    0.45349082311121
C         2.87726997314965    0.94163996527738   -0.84305177295153
C         1.20865422224467    0.94396770190223   -1.33680696405107
C         1.02554681153000    1.95090083277270   -2.46055899866476
O         2.04792425739640    1.86771755587569   -3.37438982369470
C         3.17244595664613    2.69033996339257   -3.18668560252350
C         3.27420016490257    3.35265296747522   -1.81212408450786
C         3.20458617860036    2.40237532900421   -0.53057411064873
C         2.27037093762949    3.02401591705415    0.49470669426950
C         1.66878757482142    3.40860120279417    1.58568201710739
C         4.54655583791245    2.56614217617495    0.16419909935336
C         5.67903429805785    2.88316445624640    0.72724946500494
C         4.43102163491595    1.89891647617191   -3.54030761731244
N         5.52814286340647    2.84602789313080   -4.08670895079174
C         4.84486972258935    0.99270325277083   -2.40578191284670
N         3.70623609017753    0.26471555087181   -1.86647994414954
H         3.03816727855556   -1.75252745276691   -0.70903239313249
H         1.52717389278582   -1.44397454695290    0.16730574717843
H         2.91977261619745   -2.05176353761725    1.05450502543524
H         4.12630717077664    0.07296881655593    0.69175310908459
H         2.42253754069348    0.54606007277073    1.19431042470700
H         0.46361376192808    1.05155767747656   -0.55257247935863
H         1.06392042744516   -0.08495223410447   -1.78663024711535
H         0.83208292327238    2.97361744158363   -2.08605623718403
H         0.11000597719507    1.64057732984184   -2.99944310017138
H         3.18295044713920    3.51290013739852   -3.90689031481874
H         2.43429238726891    4.08249329441967   -1.62199573504767
H         4.19547622402016    4.04878527664092   -1.79573702280287
H         1.00410897192943    3.98296517821418    2.18992589117420
H         6.65032444975843    3.16711449980147    1.07000650728610
H         4.24289289627158    1.28097246714844   -4.42155795018546
H         5.79857895900091    3.57699394361674   -3.42843954839784
H         6.34247612292828    2.27607242073876   -4.32811755175787
H         5.32577222329548    1.55792276127676   -1.58517477122684
H         5.64740334491856    0.31242800061091   -2.72264938181055
H         3.19279805515255   -0.17832655538540   -2.65744651463886
