37
 energy: -49.855673856473 gnorm: 0.320673005265 xtb: 6.4.1 (79825abcba525fcdf90b791dcacef51065a7a4e7)
C         2.83079188748237   -1.30044787962422    0.31462246160616
C         2.82423879617618    0.18798415162477    0.61887305374396
C         2.93716044992276    0.93170911097364   -0.77683125978435
C         1.45757713395899    0.84109529126550   -1.68825897377540
C         1.06537553498297    2.16320597845496   -2.32736970410461
O         1.85138838152614    2.53105657770241   -3.39232586177525
C         3.17912086494251    2.92467075505812   -3.15007829437556
C         3.39746763125150    3.41585701058826   -1.71635445125294
C         3.27894179061519    2.38262800183149   -0.50448256964837
C         2.14435097254629    2.96890787654318    0.31975974942045
C         1.45029190502401    3.53122390768284    1.26955876814400
C         4.56275766408831    2.52512284081011    0.29671900576558
C         5.62435518142002    2.28770829893447    1.01552447748253
C         4.22371640208528    1.78333823173988   -3.56621652030946
N         5.23311858064344    2.42755026936294   -4.54873753067561
C         4.89318989630080    1.09512452126839   -2.40096618276258
N         4.05507230491729    0.30107368224768   -1.51533565917355
H         3.78814121603883   -1.48756715853316   -0.16741953390623
H         1.99729494471933   -1.58580613006181   -0.33977459941317
H         2.80846396822339   -1.97708494089254    1.18005851331378
H         3.67600809142870    0.48337649470890    1.24109949437641
H         1.89551818658195    0.53948221566998    1.08244479576022
H         0.63242788292245    0.61607293955941   -1.01730571756494
H         1.55216593203578    0.07035551044130   -2.51226033390172
H         0.90379354291447    2.90791004135367   -1.52553619593140
H         0.05748949888232    1.96460517019562   -2.73923767786278
H         3.38301251570870    3.80136685919692   -3.77075739626568
H         2.73016871923591    4.30329197385024   -1.51280565995731
H         4.44716474976656    3.89724968270211   -1.71243535692327
H         0.60905175452649    3.91557335679600    1.80002343973141
H         6.55437204232443    2.41719439725389    1.52524652760294
H         3.64220182188794    1.12030805421025   -4.21126004320915
H         5.98003517715250    2.89028105352793   -4.03031543032963
H         5.64471902664581    1.62834573007762   -5.03671620635941
H         5.45209647236191    1.79057232099729   -1.74666335846819
H         5.68662970749799    0.45541375346261   -2.81140865870489
H         3.71675822633838   -0.57424809248797   -1.96798167340909
