37
 energy: -49.852819057617 gnorm: 0.329127899700 xtb: 6.4.1 (79825abcba525fcdf90b791dcacef51065a7a4e7)
C         2.49134417326687   -1.21348593951699    0.43258837319403
C         2.80263985670971    0.26395689670432    0.60081126308421
C         3.04475448858763    0.99427930722545   -0.78550700039880
C         1.52159576664479    0.88071795916630   -1.61927522906015
C         1.08987080494298    2.12102182041178   -2.38446878515308
O         1.88221511868787    2.54025327456277   -3.42547663929759
C         3.24114135710364    2.79942204535735   -3.17519563953994
C         3.62796564792197    3.42897739748781   -1.78893393258493
C         3.45946390616734    2.44625345930771   -0.54149461321130
C         2.35684305813250    3.12290559711224    0.25648093722124
C         1.47690458516496    3.60782067322434    1.08750510800527
C         4.61723905716991    2.56956234563240    0.43562540822957
C         5.66712488445125    2.64028791809452    1.20554355001616
C         4.14980244580894    1.59234552385301   -3.52157908616653
N         5.13691251353574    2.19513679963407   -4.55187313904567
C         4.92308444209397    0.95301051515993   -2.39333845540832
N         4.14129372844393    0.21915794171600   -1.40969068467262
H         3.30794310700004   -1.65724147314178   -0.13322348129408
H         1.50061070098035   -1.31984808104240   -0.02732061771141
H         2.51020521568095   -1.67877001738015    1.42781236619350
H         3.63151694929950    0.41569962807993    1.30071855765424
H         1.92773334649040    0.78039098841593    1.01167139383894
H         0.71525386018715    0.57443717993511   -0.95769422007558
H         1.63915982818148    0.10240366982450   -2.43313679618380
H         0.92791544425670    2.95514678232152   -1.67620621705956
H         0.07934988182200    1.91355831280977   -2.78536543962000
H         3.40618844967118    3.61790296992815   -3.88107016460923
H         2.97344822942431    4.33245894252443   -1.61691996249143
H         4.73848448969739    3.74382311575848   -1.82412453857390
H         0.65757875652115    3.94918420345583    1.67824902656810
H         6.35938747709717    2.78906258026841    2.00563926937430
H         3.55821918628423    0.80430064560514   -3.99366370431602
H         5.76897637625305    1.50266195183324   -4.95404165285717
H         4.62121999521885    2.67401492128770   -5.29416888997337
H         5.50526875520104    1.79762104669698   -1.97881358953062
H         5.60151885056565    0.21987440283567   -2.85102592602491
H         3.83626854797190   -0.68419587701294   -1.82974372513629
