37
 energy: -49.853473796276 gnorm: 0.326068757477 xtb: 6.4.1 (79825abcba525fcdf90b791dcacef51065a7a4e7)
C         2.77970057076958   -1.40591572385628    0.24592316832043
C         3.10431995020432    0.06280952705432    0.45925313201673
C         3.03501105420221    0.93168186377103   -0.86518100582915
C         1.36616668714691    0.76920053983824   -1.33062319265366
C         0.97944593174655    1.71787172998239   -2.45344611706598
O         1.92954494341907    1.93962977461271   -3.42060541823208
C         3.02148276631535    2.79442196005714   -3.18932277141360
C         3.12715360852246    3.37261781157547   -1.78755337660231
C         3.27556425805585    2.40152992394232   -0.52850349535721
C         2.31874573182837    2.84450217742965    0.56633426570409
C         1.47764068083936    3.60381760628780    1.21132877672398
C         4.66690478124822    2.57302495278126    0.05901076736073
C         5.70025774597324    2.62883794467300    0.85217077559950
C         4.34353545724139    2.11080316562870   -3.55478447105819
N         5.41637258596837    3.17926354432147   -3.88137650675650
C         4.86935008960465    1.14227317886333   -2.52274287441035
N         3.89691430235364    0.27528098988998   -1.87467463694571
H         1.72001755250644   -1.65029582312355    0.21062281734801
H         3.32813202597942   -1.99053368385309    0.99547421926957
H         3.13969815121064   -1.77253465769188   -0.72531733110422
H         4.10152623486444    0.17297416908289    0.89899929705707
H         2.44660102253435    0.48296164681077    1.22857077008015
H         0.70078452402305    0.88519302924895   -0.47886211302249
H         1.37202728515285   -0.33158385405325   -1.59558444196169
H         0.61744059238363    2.67938746093572   -2.04348332634022
H         0.15193638985702    1.27082547387290   -3.03678938964371
H         2.88629799413195    3.67555615451998   -3.82236149101539
H         2.24763894905784    4.04524645086971   -1.56781389028493
H         4.08562065798728    4.01594813633971   -1.75460922190281
H         0.67275009044824    3.87793866051849    1.85461024968044
H         6.60604506254121    2.65245957744250    1.41830323987522
H         4.08363549058683    1.59756729728771   -4.48370336987312
H         5.79734077785742    3.30158865078804   -2.94293873045165
H         6.07739459716361    2.69898026017163   -4.49671696404871
H         5.31333910138802    1.64464672999816   -1.64261165611021
H         5.57027062259040    0.50162371238728   -3.07547996755045
H         3.25016815373833   -0.18510945129578   -2.54942874053169
