37
 energy: -49.855946886826 gnorm: 0.314017675886 xtb: 6.4.1 (79825abcba525fcdf90b791dcacef51065a7a4e7)
C         2.64218467193731   -1.38634803696927    0.22629088312554
C         2.93625400246786    0.08349429690867    0.47353169574072
C         3.09497216840542    0.91366688474857   -0.86791925880428
C         1.55395650082497    0.80645617105610   -1.66907761096172
C         1.05483292349533    2.06386882794386   -2.36193427219810
O         1.84824879811189    2.58919044282163   -3.35278760464061
C         3.18950015331946    2.93491871695821   -3.11194260373903
C         3.47345049570221    3.41170448422598   -1.65209785386683
C         3.35733085220828    2.36186082190421   -0.45435476424816
C         2.24242878771092    2.81483746482002    0.47419321509806
C         1.59165645901535    3.59269862946161    1.29362160534342
C         4.58225842621920    2.43628656120061    0.44254276228627
C         5.33697342216055    2.86203545829070    1.41680115182749
C         4.10364429557790    1.82240620304077   -3.61214575072627
N         5.09394871224338    2.39993519639351   -4.65378237998150
C         4.92321465990832    1.09901217803479   -2.57068201054877
N         4.22355349625306    0.28296033440222   -1.58995121140766
H         3.57767793779587   -1.91613079157335    0.05872468962778
H         1.97629663218332   -1.58946084934098   -0.62207242464626
H         2.21952232855758   -1.89962642981885    1.10105807674799
H         3.77510177516217    0.25884179121014    1.15582267643712
H         2.09492957582558    0.52858287262966    1.01670845188128
H         0.85562289478393    0.50876167493215   -0.89100770500752
H         1.69620146616912    0.03954669713347   -2.48979761207435
H         0.87246929829639    2.81253570683394   -1.56828997617191
H         0.07195329747763    1.93394620680943   -2.85384841463411
H         3.35290045388103    3.77295999558722   -3.79487566696394
H         2.73694324742270    4.24654269152455   -1.46538149876844
H         4.49986907663943    3.93771499310277   -1.59382144963282
H         0.80083942374021    4.00573722915031    1.87741076167579
H         6.12327212234227    3.27820834593133    2.00845058060809
H         3.47547900050950    1.12583439324582   -4.17254332881730
H         5.96592632963731    2.66786816578586   -4.19701918800565
H         5.25275190685719    1.65642126367693   -5.33805906956488
H         5.57412976796846    1.77536510709098   -1.98502628739591
H         5.55163173735689    0.40879021447165   -3.15027259373968
H         3.95337664630551   -0.68466986524841   -1.86604776250233
