37
 energy: -49.852135827195 gnorm: 0.333878618746 xtb: 6.4.1 (79825abcba525fcdf90b791dcacef51065a7a4e7)
C         2.58199402372061   -1.36011384938571    0.27578951149980
C         2.83923279169873    0.12021817305950    0.50048173901868
C         3.00433806692471    0.92059155010006   -0.85819826429599
C         1.49674333289978    0.79204824808443   -1.71768233549958
C         1.09567918752336    2.08394632806143   -2.41079718263624
O         1.81904494109084    2.63649147433639   -3.43972756120822
C         3.17227570996822    2.91812750221818   -3.18294519030109
C         3.43431281777163    3.41080589604171   -1.74621966266685
C         3.29563554394200    2.36455620004328   -0.54773133763619
C         2.33519587578233    2.82993030919597    0.53457103770922
C         1.69043939268851    3.50148969422316    1.44744162180999
C         4.53238569932760    2.45780733797680    0.33099802431169
C         5.49156941001781    2.86889856027779    1.11266737947543
C         4.18783703703492    1.79419472790851   -3.53318343461619
N         5.22490050488122    2.34956520161206   -4.54081057000902
C         4.92126924669878    1.09259451024962   -2.41538401233139
N         4.09373693093928    0.23003783172725   -1.58563374921539
H         3.41087287270410   -1.78116828586811   -0.28951470934685
H         1.64939164653584   -1.46622984203420   -0.29287049268088
H         2.45650855464988   -1.78676392688894    1.28054764990981
H         3.82958651161296    0.27716091826755    0.94150531701053
H         2.10384693825100    0.67803878124069    1.09125702235060
H         0.77302360009163    0.59455979329155   -0.93097230258870
H         1.58923861872401   -0.13512303726741   -2.36092655172324
H         1.03002196876917    2.81670568386683   -1.58473258926513
H         0.06592308439197    1.92473097639457   -2.78384491479923
H         3.43469352782841    3.73779959228966   -3.85724850885725
H         2.70755189109787    4.25690674863183   -1.57245929502790
H         4.46966359401431    3.90276464436664   -1.60606379170689
H         0.93416337029562    3.90794773181426    2.07961304161283
H         6.20490934810235    3.14729453944635    1.85775557247904
H         3.65101126402961    1.01599042306011   -4.08096579937564
H         6.00076104895918    2.61340421832082   -3.93319634675338
H         5.48293923927859    1.71437423240224   -5.29989847985902
H         5.45852402420821    1.79587025266450   -1.75138331726864
H         5.64958316649788    0.39374991366866   -2.84945162299749
H         3.64877564716247   -0.50227525400633   -2.17830569875643
