37
 energy: -49.853652373584 gnorm: 0.324738737966 xtb: 6.4.1 (79825abcba525fcdf90b791dcacef51065a7a4e7)
C         2.54276041571716   -1.22819106629098    0.51701582478612
C         2.73716377211158    0.27679045304645    0.58967419508326
C         3.02267322296665    0.96598378236947   -0.80938461493591
C         1.55470989950252    0.89794839151594   -1.74133579243032
C         1.13432848695395    2.18801154429899   -2.42637434504629
O         1.91165706101086    2.57786137665963   -3.48987764643981
C         3.27136574699457    2.81859458501093   -3.22581446525714
C         3.46251937637060    3.39484784565530   -1.75618766840504
C         3.31334528020544    2.40229022457026   -0.51408440490214
C         2.20397980195893    3.04948422192152    0.29883878058462
C         1.69920530093583    3.64674229331623    1.34216090433128
C         4.56543390274061    2.61819387235653    0.32022468013951
C         5.59604822326145    2.68630737187753    1.11598283019062
C         4.15066275102747    1.62710068115950   -3.52956764871091
N         5.23166257958921    2.15474117428435   -4.50541821309111
C         4.94844770845512    0.97074750879537   -2.42848595569011
N         4.17972458046186    0.26652830077495   -1.41338038694067
H         3.36949451366983   -1.81063770732950    0.11556534412799
H         1.65455036259360   -1.47158738634794   -0.07982848575168
H         2.35965012483981   -1.61022532011989    1.53083842193546
H         3.55896404733348    0.51590621865174    1.27334170952409
H         1.82836866029516    0.71937714847808    1.01297087755146
H         0.76669672743742    0.68405870344026   -1.02372095203492
H         1.59096112673269    0.06139665760162   -2.50345923178853
H         0.92427406051701    2.95567434003822   -1.65812905470075
H         0.17892440292588    1.90848390947821   -2.91008821515107
H         3.48875553110989    3.60141682548860   -3.95748476898814
H         2.73967390899104    4.25820682330453   -1.67639749177721
H         4.49542299166267    3.90042678680712   -1.65074399826368
H         0.85870243280396    3.91963972150394    1.93872124592764
H         6.57656633002106    2.69793848271299    1.54020391975859
H         3.52745225431367    0.89259201612407   -4.04527596501955
H         5.81056412917360    1.34571486677627   -4.73150466677303
H         4.74064093447978    2.47876141800730   -5.34218259831626
H         5.55291340054198    1.65867943788274   -1.80759363265291
H         5.68086643029073    0.28503829933184   -2.87637581092364
H         3.78079401739711   -0.65684325826469   -1.68499115451674
