37
 energy: -49.855044623556 gnorm: 0.328359029357 xtb: 6.4.1 (79825abcba525fcdf90b791dcacef51065a7a4e7)
C         2.76193422499168   -1.29773694167654    0.55642694813161
C         2.70797580080329    0.22007291347235    0.59361578581233
C         2.96654174611156    1.00943380394296   -0.75691066064664
C         1.55405431151148    0.85333566792352   -1.76119685012646
C         1.18476989851190    2.17747423519480   -2.40969308468848
O         1.97370339860497    2.72116946976910   -3.39419361821232
C         3.34402293758018    2.90439897228749   -3.13896653775077
C         3.56484290729962    3.39916416353174   -1.70918829781455
C         3.30723309749325    2.45535855365331   -0.44700282106144
C         2.21779769346716    3.13639397315842    0.36522689422976
C         1.33596527795898    3.75705753683754    1.09815516661997
C         4.54412596001040    2.40068518471336    0.43476746594828
C         5.62212407523686    2.38167961449075    1.16797625765608
C         4.12076698167187    1.63815890783114   -3.57420994588479
N         5.12364957349946    2.09730296254656   -4.66171290561452
C         4.90854424460368    1.07152514640112   -2.41750151914314
N         4.11402076306732    0.35804936500960   -1.42907650776059
H         3.74743541788655   -1.69267363399801    0.31829199741440
H         2.10275261500927   -1.66186172535281   -0.24186795049082
H         2.38053495651949   -1.70047275585215    1.50492801311911
H         3.54804012720774    0.52037561857637    1.22925996693716
H         1.77020416348743    0.64886947765123    0.96468112046476
H         0.66530263118077    0.58525343400992   -1.19556712676353
H         1.72750900803315    0.09275789273074   -2.58180638469002
H         0.88721067004573    2.89794540645474   -1.62483026016416
H         0.23183540003773    2.07157977952312   -2.96251672434420
H         3.64467021501717    3.74573473755060   -3.76918535408137
H         2.81437635953856    4.24086548469697   -1.65820192912232
H         4.64369931859032    3.80518316289160   -1.63964893929796
H         0.59125831089007    4.04773172578942    1.80364954992170
H         6.54132939631778    2.36956089890978    1.71242947671657
H         3.37703896710322    0.94393443579219   -3.97266997218769
H         5.68523844933208    1.28410784038954   -4.91488731731446
H         4.65491354367531    2.35451468531462   -5.53371902641508
H         5.43979444637318    1.93787220042045   -1.98006307318813
H         5.69105092808275    0.36220824577500   -2.72047420996728
H         3.88616579430069   -0.58791928240155   -1.80157948856799
