37
 energy: -49.852834163940 gnorm: 0.322036610494 xtb: 6.4.1 (79825abcba525fcdf90b791dcacef51065a7a4e7)
C         2.50379192532966   -1.25338823487967    0.32722898564958
C         3.03131691962897    0.15404858940382    0.54831775429287
C         2.85985879890931    1.03505597184032   -0.75870051298550
C         1.19939467789629    1.00981226342421   -1.27860414767825
C         1.08219265409281    1.94170529418240   -2.47363567617742
O         2.09393233882700    1.77211811369965   -3.38735602438693
C         3.20503324183223    2.61394071504909   -3.20493057854116
C         3.35995714752145    3.34011793696024   -1.90293059050186
C         3.23370234403906    2.50859888538456   -0.54540349572929
C         2.23931771657838    3.19093950716886    0.37980260425380
C         1.46465362864194    3.48074805343124    1.38774214088894
C         4.56859311825448    2.68026069775966    0.16100351349639
C         5.75705634810395    2.74199977714920    0.69371326878205
C         4.47915988703258    1.74016237719194   -3.55340757051065
N         5.60422169067635    2.73990474843314   -3.91946845685568
C         4.86192482571375    0.87066074507523   -2.37990889836349
N         3.70251079356170    0.28869789496830   -1.72083560987010
H         2.92814146309372   -1.59311359340314   -0.61532605118896
H         1.41104841973199   -1.33806098795766    0.27133485310470
H         2.83608219237316   -1.84822466661858    1.18924325826848
H         4.10150386383969    0.15392149952921    0.78205521486806
H         2.41657850148260    0.64338530598946    1.31226662355281
H         0.61609293534422    1.29208830633834   -0.40581326200547
H         0.87015193547869   -0.00254459537671   -1.66421781326051
H         1.14632124764086    2.98954217655103   -2.12498793443340
H         0.10427435499063    1.74309142953253   -2.95232148517463
H         3.11473624814768    3.32004224772494   -4.03479652571768
H         2.61834621112765    4.19012822471690   -1.86102004233082
H         4.42052353935985    3.79669342416129   -1.92180017033465
H         0.94428608316164    4.12317647166686    2.06102188708125
H         6.65616285323057    3.01901840791627    1.20005583040974
H         4.14232321276909    1.11948847731759   -4.38716672918575
H         6.42943235163148    2.15988750729660   -4.07235082970388
H         5.41301976035984    3.14733198251176   -4.83800581672255
H         5.51353462848933    1.43850783137077   -1.68919134364797
H         5.46914151539211    0.02352241967509   -2.72759291582093
H         3.04095713690782   -0.16642883109428   -2.38471772438769
