37
 energy: -49.850146953908 gnorm: 0.304495418970 xtb: 6.4.1 (79825abcba525fcdf90b791dcacef51065a7a4e7)
C         2.61413027731531   -1.45269768226221    0.32022742796028
C         2.82981190358136    0.03999176244058    0.50298665492129
C         2.98150247752811    0.91761206068352   -0.80874549285093
C         1.47396196256953    0.78323968575918   -1.66743274169691
C         1.01919218518850    2.00338829295988   -2.45145003398305
O         1.85411967431301    2.44745560163328   -3.44792491531255
C         3.14557085450934    2.89551488586965   -3.11946444745357
C         3.37937052989591    3.45527101964651   -1.70639395725358
C         3.33636595824373    2.41127095392242   -0.49872740746382
C         2.24060960652882    2.92554284985861    0.42064102480281
C         1.83124581842403    3.71834332158534    1.37139033499967
C         4.61854317415683    2.43213884259607    0.31735966272872
C         5.47125797030045    2.90307154340180    1.18404078561925
C         4.20060617763085    1.83791290783977   -3.59102429242947
N         5.24734978800890    2.66231676106391   -4.38092019961288
C         4.86232520995362    1.03537203666540   -2.49663071966926
N         4.04188831104457    0.24371562408748   -1.59249429446455
H         3.55389883833334   -1.96784454038491    0.13219920378443
H         2.07552503639520   -1.60464515233792   -0.62380560053977
H         2.14611579543398   -1.98735097530173    1.15833488477988
H         3.68096801893026    0.09835770304183    1.19005287901566
H         1.94430426009691    0.36030982184803    1.06356151501634
H         0.72157708219235    0.54631784423857   -0.91945570334014
H         1.66007634082746   -0.13859237316447   -2.29795013650841
H         0.76624400209540    2.79397667367558   -1.72027489416595
H         0.13092543304299    1.71714330225147   -3.04639352105983
H         3.23795286252002    3.68493676681896   -3.87025674247145
H         2.62210774857364    4.25119713301809   -1.44694171421498
H         4.42018045532331    3.95209151075520   -1.76557506709384
H         1.15206869104115    4.08478564189679    2.10708099374628
H         6.45578982813665    2.90305225108762    1.59902467505694
H         3.71334018719310    1.23919231031950   -4.36429970930778
H         5.99260082342408    2.96083155929736   -3.75143194370915
H         5.74300624533082    2.03473236234260   -5.01867290205469
H         5.51202720203683    1.71111825884506   -1.90893117620329
H         5.53383704403115    0.35954921023303   -3.04396516073837
H         3.67453906950669   -0.61328506995760   -2.05740007455231
