37
 energy: -49.855510153906 gnorm: 0.319312115751 xtb: 6.4.1 (79825abcba525fcdf90b791dcacef51065a7a4e7)
C         2.44190095718421   -1.19939304159252    0.49938232237016
C         2.91706389280067    0.24060640972177    0.59245778833758
C         2.95504526120064    1.00245656844642   -0.79750998010539
C         1.32800528406973    0.89929641528860   -1.40593173096047
C         1.11637052934050    1.90589035478339   -2.52496732502113
O         2.11222607982950    1.93020566085097   -3.47098125969659
C         3.21572080155589    2.76146142355385   -3.21059153605799
C         3.28950371820941    3.39314461472630   -1.83380914158771
C         3.26471531782368    2.46851527746260   -0.53200648234985
C         2.30488740099160    3.10725094422160    0.45852015452760
C         1.49519797670724    3.28241995489589    1.46537387011661
C         4.61396585562848    2.59566952372314    0.15630068766875
C         5.76751069743968    2.44702213897706    0.74560075627239
C         4.41606591474700    1.92671014045717   -3.55461495111009
N         5.62216372678338    2.76647915942703   -4.04386489332658
C         4.85010096406250    1.00997347946402   -2.43620148087419
N         3.78008711456930    0.26956230301954   -1.78492511241166
H         3.03957768589950   -1.79297578166099   -0.18933961391671
H         1.38609453397251   -1.38143084982644    0.26164921307959
H         2.60913820689985   -1.66839969097953    1.47886191553100
H         3.94245551360529    0.26934323138748    0.97674873440257
H         2.24813831275249    0.79972670576570    1.25645679637157
H         0.55053373479508    1.00065924239047   -0.65297211404860
H         1.22700570994119   -0.15678403861541   -1.80147977224588
H         0.96419023981640    2.89762324217147   -2.05920247457199
H         0.16406702937878    1.65652787957585   -3.03078168877847
H         3.11885335413023    3.63160899226806   -3.86547344761586
H         2.44340683541093    4.12708611440006   -1.69341431836293
H         4.30160877239327    3.94804135101849   -1.79704935450956
H         0.79422960795954    3.92294708275368    1.95031783384268
H         6.70159693224272    2.71663124692575    1.18866782689306
H         4.10315868013410    1.24655467162586   -4.35043337922798
H         6.30455388748684    2.03561929925663   -4.24623383428409
H         5.32044719801445    3.24780417889020   -4.89448782541972
H         5.41732250159910    1.62891876955245   -1.71557477855347
H         5.54880900907811    0.25730801171537   -2.82676695305465
H         3.20917094349091   -0.19224309824376   -2.52406213376263
