37
 energy: -49.782988886247 gnorm: 0.339915136502 xtb: 6.4.1 (79825abcba525fcdf90b791dcacef51065a7a4e7)
C         2.54395104011088   -1.50641938717859    0.32983599905967
C         3.12433165004453   -0.10283878445295    0.36391103487328
C         3.06272912932417    0.82187845264950   -0.92254603602926
C         1.56934251525904    0.79781297354448   -1.81546002483764
C         0.92418695984624    2.11121241783767   -2.22657739039157
O         1.56633926331093    2.72606866486622   -3.27388540899300
C         2.90972146424522    3.05000509199222   -3.01527565714397
C         3.33801041894064    3.35474621739479   -1.62010740595154
C         3.30515564650652    2.25741958593602   -0.46034930041357
C         2.59179462332326    2.69412549109161    0.80882365258668
C         1.70812270167995    3.51476457871086    1.30451605612157
C         4.69269319787670    2.43917410077883    0.13304510800826
C         5.51449674787009    3.00347906930759    0.97342308992191
C         4.15268591993669    1.99329042455344   -3.62939735322057
N         5.40888368989219    2.70013275997436   -4.19648686861844
C         4.79978070718510    1.03445924130158   -2.65906116619733
N         3.97677194294545    0.13563046731076   -1.86403748003883
H         1.47534093134885   -1.46414663665293    0.12938327614155
H         2.74402123836514   -1.96243977577881    1.30779270404959
H         3.04671068818090   -2.15396144987558   -0.40176349424672
H         4.13009024340959    0.03907647617541    0.77408540980713
H         2.52285609534712    0.46688085207745    1.08128005339380
H         0.81817558445762    0.34543248215010   -1.17297675967359
H         1.75873179687793    0.25933402819124   -2.79328271456621
H         0.68644211765219    2.75363583455003   -1.35801570861243
H         0.04472055631965    1.83782256727727   -2.84034330850550
H         3.11053689329988    3.98414247786434   -3.54675559010739
H         2.61195456973733    4.15659045161582   -1.29738538637127
H         4.30712979156494    3.97374674485874   -1.51397396594682
H         1.02224931859234    3.87680780147328    2.03616129076461
H         6.40376646771011    2.93345353440192    1.56147958492796
H         3.62597449730307    1.27619694324692   -4.26359084553359
H         6.05763963437929    1.95097177983658   -4.43864220130288
H         4.94728762365383    2.95963422518339   -5.07161775703180
H         5.55253006322543    1.58422828957603   -2.06302527171904
H         5.31482931222924    0.28487087817092   -3.27556894855430
H         4.67140353045698   -0.25497660398291   -1.19288465693904
