37
 energy: -49.860340510534 gnorm: 0.326878596126 xtb: 6.4.1 (79825abcba525fcdf90b791dcacef51065a7a4e7)
C         2.58122346122738   -1.28776037153537    0.37252684737306
C         2.97753442218109    0.16275202397414    0.58930482201953
C         2.91773118402829    0.99937859312041   -0.75618698493838
C         1.27293740845469    0.97125659801986   -1.32358518779590
C         1.03886228956736    2.05126472831509   -2.36716200168987
O         1.97660130442783    2.09174348573824   -3.37029154785822
C         3.21856610074101    2.72660662633948   -3.19433192317057
C         3.49504588822787    3.35003189247016   -1.81010606423167
C         3.37239200789352    2.44495227813016   -0.50013243437149
C         2.33312627745440    3.10073685916291    0.39444519952321
C         1.24839976431327    3.60300835022836    0.91514398458689
C         4.66617792152458    2.45048554259625    0.29767663077341
C         5.76851938462782    2.70720517743799    0.94495908818859
C         4.32604843135581    1.73695995753177   -3.55341735444859
N         5.47318574771821    2.61805980382649   -4.10748276725135
C         4.84609108221232    0.89022431706706   -2.41665193601438
N         3.75143582642340    0.23783909138292   -1.71421144403566
H         3.05638870765170   -1.62752269403238   -0.54544668149332
H         1.50142069808029   -1.44667063075892    0.25782933035592
H         2.95090102653649   -1.91003508793615    1.19922418215310
H         3.97862325964937    0.23292891035798    1.02842855891818
H         2.35266439603351    0.72179326968788    1.29498318771298
H         0.59729433892593    1.06930294502039   -0.47766676748075
H         1.20753561196984   -0.03443801710528   -1.83959491465844
H         0.96721639734237    3.00882615068259   -1.81800551678488
H         0.08013439457643    1.83799058289141   -2.87732543918118
H         3.23273941386527    3.59082252280687   -3.86391419092196
H         2.90841859839231    4.30995046843972   -1.71691001467317
H         4.61336893567771    3.60321060460827   -1.94748292719418
H         0.52720014807714    4.10204434293043    1.52147429986702
H         6.70760803424025    2.93812474150950    1.39916523666988
H         3.93704443867353    1.19416086972847   -4.41822624302095
H         6.34278147710639    2.08627054609432   -4.06542200537418
H         5.26999480752547    2.88602661168979   -5.07349169185105
H         5.39818184565532    1.51076863365029   -1.68572312349441
H         5.52512404296607    0.12518196828888   -2.81773056843009
H         3.14416155636986   -0.21790903593240   -2.42768509090352
