37
 energy: -49.855042910491 gnorm: 0.325700491037 xtb: 6.4.1 (79825abcba525fcdf90b791dcacef51065a7a4e7)
C         2.56030941884669   -1.34729418781513    0.34413833348948
C         3.09409517819621    0.06514258140403    0.51187745720457
C         2.96181362597370    0.92457145087845   -0.81392503761917
C         1.31087908694653    0.90748205604732   -1.36365336300360
C         1.11602137764099    2.08088367572627   -2.30991992231575
O         2.03887562798033    2.04526281363277   -3.32694158529434
C         3.20731065481383    2.81025821519020   -3.16559978740325
C         3.45667723982406    3.36354547434725   -1.79478996208732
C         3.31802329558957    2.41139166350008   -0.52026171453951
C         2.32050620872720    3.02177017186651    0.45071389496429
C         1.23824813398544    3.43455697921387    1.04934572996552
C         4.55686455391972    2.49866153724617    0.35613332568704
C         5.65517298592728    2.80278417935575    0.98958763078854
C         4.32899463042969    1.84824576599928   -3.60095774511406
N         5.50487515360566    2.68184759640175   -4.16811065830765
C         4.82715508156058    1.02708128274896   -2.43598294863633
N         3.82301439232006    0.20388944121530   -1.77920602708430
H         2.97098822919373   -1.85723063080114   -0.52488616888656
H         1.47066924479142   -1.36230978713689    0.21436614446476
H         2.88901937088428   -1.96020633310895    1.19478766069061
H         4.16902860874178    0.09702482133888    0.72028800118776
H         2.50410378347967    0.56612176615437    1.28770065251249
H         0.65883845213477    1.00543722289100   -0.49940084596914
H         1.12330943135796   -0.14153382156691   -1.74620846343256
H         1.01057478617110    3.06830813549854   -1.82257629719466
H         0.15388951473692    1.86983977519644   -2.81457279420382
H         3.11472913489605    3.64179384857527   -3.86943752749469
H         2.76760255366178    4.23736798775582   -1.60539340398698
H         4.53795501306959    3.76860478525673   -1.77520324390021
H         0.63692213478413    4.19715271928237    1.48941058452525
H         6.50172235333032    3.01115804206696    1.60720326825065
H         3.90096496524678    1.20332104151125   -4.37213351966252
H         6.27395446792033    2.07471693498625   -4.45214414780799
H         5.13539518608844    3.14593890010351   -5.00139921944854
H         5.31629055174131    1.62038060234349   -1.64044614995864
H         5.62304903951339    0.38495637202611   -2.83781380023382
H         3.26114557932488   -0.33436149720556   -2.47211468170191
