37
 energy: -49.833965179859 gnorm: 0.334345844274 xtb: 6.4.1 (79825abcba525fcdf90b791dcacef51065a7a4e7)
C         2.51152202076671   -1.20386442237467    0.57658500156414
C         3.06192285042467    0.20992045525960    0.49713360757784
C         3.06957427901296    0.93973095882123   -0.91041274352841
C         1.44623086385341    0.76068868684268   -1.51106085396987
C         1.04127147649009    1.94361881705838   -2.37532093683071
O         1.94443474366012    2.16159057616436   -3.38727266553312
C         3.15725143554951    2.83498627232649   -3.15901084142144
C         3.32604422536222    3.41272180535347   -1.77537449881874
C         3.26932801462827    2.38298374818826   -0.55608502918748
C         2.09896644199982    2.72354583752457    0.35202682711251
C         1.46566908080507    3.17436107174661    1.39880074897852
C         4.41031329577819    2.46646908964156    0.44471207327294
C         5.54786531096690    2.69239746686701    1.04050401262194
C         4.33230877627726    1.86686679827489   -3.72021736175068
N         5.40415582632763    2.84355454624651   -4.26471197846605
C         4.94497045584505    1.13382496305231   -2.55105674223259
N         4.02960986242872    0.27179796370559   -1.81871550153373
H         1.42793797101112   -1.25463998560252    0.66122125956577
H         3.04222224781684   -1.67049460247621    1.41622512816883
H         2.76465157089851   -1.64236480103788   -0.39858608960034
H         4.14264250738354    0.17794165322454    0.67307590338397
H         2.70668447198460    0.82512093596012    1.33158293664236
H         0.67576569474797    0.64930267231193   -0.75233745489094
H         1.56622006312515   -0.13703729603609   -2.19051338636586
H         0.93449438347270    2.88791271151913   -1.80916057999453
H         0.08825461193075    1.72331559133332   -2.89314051474047
H         3.12018055327027    3.67048991188367   -3.86326209613855
H         2.50916587740746    4.16449631670932   -1.57091028156520
H         4.30443023471972    4.02465794952293   -1.73163342309989
H         0.65285039316942    3.31701918865343    2.07391313806078
H         6.39412859508888    2.91776006140669    1.65252100025763
H         3.83438757999700    1.38004216419471   -4.56219457505050
H         6.33050693961140    2.58579273595473   -3.92383352657045
H         5.55884275940269    2.87090010007234   -5.27544942415315
H         5.34731867255812    1.87976157517839   -1.83983886277646
H         5.81707146124538    0.55988317165431   -2.89350423167122
H         3.61662174689068   -0.42885291221636   -2.46991608956265
