37
 energy: -49.853119820814 gnorm: 0.320637612810 xtb: 6.4.1 (79825abcba525fcdf90b791dcacef51065a7a4e7)
C         2.34317037143834   -1.23999433376417    0.59074431605594
C         2.89455461821057    0.17560572221648    0.58109178249284
C         3.01477843133119    0.96188319243191   -0.79047032711959
C         1.43565127465481    0.86141170636178   -1.51458429239969
C         1.09358280194574    2.06022834990277   -2.38411813547794
O         1.93181226876859    2.30958133574765   -3.44357852902120
C         3.23948296041437    2.78075639875077   -3.23267339805475
C         3.39684467146710    3.36391269736876   -1.82471391404300
C         3.29088260972257    2.45013572523986   -0.51932979059753
C         2.20318305248626    3.02073852075281    0.37605725522206
C         1.53451330501091    3.67702897062455    1.28280923767652
C         4.54306315983479    2.64127505067621    0.32086163453166
C         5.69518096306927    2.56361584346344    0.92636134810765
C         4.28487669925905    1.73017256052286   -3.63173360932876
N         5.51364035113394    2.42908653081489   -4.26490704001934
C         4.89690968080258    1.01900657884274   -2.44881357991048
N         4.03750937556703    0.23379451315830   -1.57578873282792
H         3.03529303317439   -1.88704569689887    0.05578020376142
H         1.38081942600759   -1.30557501888929    0.06733068446936
H         2.26865231358360   -1.64040629003328    1.61125062793903
H         3.92454451430336    0.06248411067351    0.93641927523241
H         2.26074204852174    0.77750879928733    1.24212576955620
H         0.71947474195874    0.66082544940547   -0.72177855021846
H         1.53212328577503   -0.03896299701224   -2.19427807390304
H         1.04922917633154    2.89636650276401   -1.66125189505115
H         0.12008141630569    1.88361360455697   -2.88011617429608
H         3.37799421061270    3.62527880650816   -3.91311953710879
H         2.68308789610290    4.23835145697381   -1.81171851678985
H         4.48564313771669    3.74870993817027   -1.83291699207275
H         0.72624265080492    3.98484394445974    1.90630803942850
H         6.63511469018586    2.98756506131100    1.20619391288298
H         3.73964533934038    1.11464375419420   -4.35124484795097
H         6.07702746704443    1.68445806105361   -4.67586817509406
H         5.12227585871901    2.96204403597411   -5.04532753082327
H         5.49869451688782    1.75708931680248   -1.88558603103012
H         5.65892892783484    0.32029969213162   -2.82080145626796
H         3.62741030748111   -0.52314699173508   -2.16263739463261
