37
 energy: -49.855804726223 gnorm: 0.328248093007 xtb: 6.4.1 (79825abcba525fcdf90b791dcacef51065a7a4e7)
C         2.48962182668004   -1.19620647492647    0.65919442962973
C         3.05732520433384    0.21061381389764    0.57788743404976
C         2.99054824887004    0.95238921186444   -0.82181922924075
C         1.33898732469963    0.88322066871500   -1.36554743134011
C         1.04594582842948    1.95523220167759   -2.40245593450191
O         1.94636066232913    2.06856828044939   -3.43379968724627
C         3.15406937228353    2.75563895366035   -3.21964293622698
C         3.38630910760523    3.40944027434882   -1.89314648584752
C         3.31226083261655    2.45494574866832   -0.61498332802579
C         2.31751861133012    3.00873193528831    0.39209392784133
C         1.25514372627490    3.43477128911221    1.01650211994233
C         4.64369290021395    2.51411011037751    0.11590666506811
C         5.71299074986655    2.36783187355707    0.84750836403233
C         4.39713306415416    1.82786462387212   -3.62726617349820
N         5.55074114751641    2.83433056037135   -3.86277445798453
C         4.84565618441126    0.94367589580566   -2.48854824361391
N         3.81063160912432    0.19337893225792   -1.79351022197494
H         2.85507359935774   -1.78073473492345   -0.18262951990142
H         1.39346768250474   -1.18431208054322    0.60736187439634
H         2.70219128254151   -1.68987741681334    1.61753624540501
H         4.12301281224169    0.30207104002643    0.81427442677270
H         2.54143170242510    0.85994673794110    1.29426182515402
H         0.79739232783195    1.10882197541254   -0.45041709790618
H         1.25394197830646   -0.12023782027436   -1.88304471830683
H         0.95224715903179    2.94445766836185   -1.91636603355448
H         0.06431956443292    1.80857302826264   -2.89216271960195
H         3.10414269816657    3.54413919224027   -3.97541083232337
H         2.68235611838980    4.26340690682455   -1.67076856027276
H         4.46919560339548    3.80529907628270   -1.95849899203940
H         0.61303373685486    4.01252318296423    1.64156193639240
H         6.62851510774362    2.39201564022360    1.39773093632652
H         4.08715126363797    1.29393892264897   -4.52875605071045
H         6.43312486674862    2.32386390811664   -3.90262949365806
H         5.48558092550967    3.23276639398406   -4.80259840035890
H         5.34637110801925    1.57340986460923   -1.72903782057639
H         5.53397766816088    0.19379819246792   -2.90223482985707
H         3.22104248491451   -0.25640936508273   -2.52536279700630
