37
 energy: -49.854098706743 gnorm: 0.324883632037 xtb: 6.4.1 (79825abcba525fcdf90b791dcacef51065a7a4e7)
C         2.59213321765901   -1.32253183186170    0.52619469806489
C         2.86470716333012    0.17057742289796    0.59229670299952
C         2.96382006557221    0.94049268670669   -0.79019227171591
C         1.39557373578105    0.88066587620946   -1.54192515856281
C         1.02859846297665    2.10666850935084   -2.36199099855276
O         1.83848553776234    2.36292635723418   -3.44165609369104
C         3.15141327605240    2.76928107106336   -3.14570651578001
C         3.47044641773601    3.34546717192765   -1.81917353912434
C         3.39046187045527    2.42514992813972   -0.51653672868610
C         2.36113349685762    3.06196309360357    0.40289129661428
C         1.43935245472955    3.69900548665637    1.06962380512683
C         4.70811571183110    2.42685857398231    0.24122144599335
C         5.73974906045009    2.87404868837828    0.90136530074323
C         4.26876021895505    1.67338465066925   -3.57346669101489
N         5.38489462531369    2.60152429141655   -4.11388341689085
C         4.88050963972235    0.91040584838360   -2.42313316828028
N         3.95369729919881    0.17178009900335   -1.57888785779858
H         3.46780124034953   -1.83481266970736    0.13291400428189
H         1.76576010327199   -1.60750171113777   -0.13734252162314
H         2.26896217137241   -1.68992429122056    1.51001331139606
H         3.79383927038430    0.24159165561458    1.16814722055834
H         2.07986759376941    0.63800804947339    1.19769498444015
H         0.58267563848384    0.65642588372600   -0.85592390014760
H         1.47940814480210    0.00744382400880   -2.25776042696442
H         0.81390992882352    3.00953557048802   -1.76001943810512
H         0.09699255556075    1.81409240349663   -2.88297221340858
H         3.32613620220316    3.55835003350595   -3.88208446451637
H         2.82145557782460    4.25814419432319   -1.67742621403084
H         4.55287939650527    3.74711536266587   -1.84439029485795
H         0.61448301269295    4.16015397378817    1.56331877072441
H         6.76297627602955    2.99053872066432    1.18588377437035
H         3.79656576331882    1.00171338557363   -4.29439628362605
H         6.15837748915085    1.99109389780027   -4.37820263450116
H         5.04797646561401    2.91975731177928   -5.02573861872603
H         5.46280964727711    1.54598233278151   -1.72951538984104
H         5.55560658916659    0.16222814454087   -2.86098458018674
H         3.42680121585654   -0.54772997527396   -2.11760745996366
