37
 energy: -49.855252364789 gnorm: 0.328022924978 xtb: 6.4.1 (79825abcba525fcdf90b791dcacef51065a7a4e7)
C         2.53233397697699   -1.36464948005832    0.45194818505188
C         3.00917594545294    0.07672089853375    0.50775541031931
C         2.99449680300016    0.93849353534499   -0.82303423920666
C         1.32779733002969    0.95402184942619   -1.32298410630996
C         1.00180434334432    1.91360582820535   -2.45576318872600
O         1.96076847228471    1.95573715867569   -3.43855239632587
C         3.12712028850726    2.70853058923684   -3.21625744859005
C         3.32817560210654    3.36044087880747   -1.83709070105047
C         3.28529413799630    2.44317515816453   -0.53055759353520
C         2.22272845597318    3.02856390708253    0.38523166575889
C         1.49949036931329    3.77942470299543    1.16828351984371
C         4.61546536957719    2.50243064737073    0.20261713498384
C         5.79931661440138    2.69658993858731    0.71333684550090
C         4.40329423515233    1.84312434348839   -3.58462536636472
N         5.51716518798728    2.90507819846144   -3.76011027663465
C         4.86890385153852    0.92884895538972   -2.47694787723303
N         3.80446502096477    0.19193962759410   -1.81269350197279
H         3.14523689824219   -1.95802768716398   -0.22343922919891
H         1.45925804323073   -1.50475549667939    0.26957400181264
H         2.64848865449142   -1.78377102485826    1.46098784228494
H         4.05444251721245    0.08551146116112    0.83528225220980
H         2.42755747369109    0.61559259479809    1.26426639375373
H         0.70913807591939    1.04256414226005   -0.43354292946807
H         1.21263677108850   -0.10855856632261   -1.69664972931270
H         0.82550418542385    2.92850882551389   -2.05262547434953
H         0.03783172623820    1.58819287853650   -2.89139488676903
H         3.12232653300452    3.53546732760725   -3.93149381682023
H         2.55166144062181    4.17546393878131   -1.75328184865953
H         4.33533760378093    3.92246483731142   -1.89516022839900
H         0.82946823266910    4.48537321863156    1.60361014757713
H         6.78792521262989    2.51828181352112    1.07716897383943
H         4.23988899801899    1.30971280883461   -4.52410406914104
H         6.40928333107852    2.41453732990675   -3.82538301170715
H         5.32579959961479    3.49264139046474   -4.57522665954474
H         5.37399262899012    1.40611891549030   -1.61599776197153
H         5.51457060928674    0.14847424869141   -2.90282271996894
H         3.15399151947019   -0.33967560281596   -2.42897469594045
