37
 energy: -49.849408306143 gnorm: 0.324687536433 xtb: 6.4.1 (79825abcba525fcdf90b791dcacef51065a7a4e7)
C         2.48228947699851   -1.18708856539697    0.42953359189275
C         2.87519066518930    0.26942373783717    0.60909373346541
C         3.02477793101677    1.03139953757879   -0.77325397120354
C         1.51042554268601    0.91701112621814   -1.62280106624435
C         1.15635284131304    2.18086435869249   -2.38933144280861
O         1.95008500530565    2.44222169649645   -3.47971828701279
C         3.27272447545782    2.77274145539485   -3.13639471795400
C         3.49552866553559    3.39607940352148   -1.80054784182754
C         3.38960563803017    2.48475355469579   -0.49344818474976
C         2.26145848895115    2.96631233271964    0.40420486312018
C         1.37184210044481    3.59401465850495    1.12156666156332
C         4.70868040626749    2.61185740782785    0.25106396077229
C         5.57644399173082    2.68732027664583    1.22128456131789
C         4.22881876260258    1.57800622777712   -3.55824225958823
N         5.27117930779928    2.19771363230037   -4.52193135363999
C         4.89823093313759    0.94746902932983   -2.36076515859234
N         4.03178282702503    0.19531541807056   -1.46587305281726
H         3.22809648716956   -1.60701827250149   -0.24227500552892
H         1.52771558597675   -1.27832864975542   -0.10417600309730
H         2.46342752986034   -1.68322157015364    1.40974381263109
H         3.85224569905760    0.22991812398408    1.10279007684262
H         2.13084121089191    0.83869202872035    1.17729187027982
H         0.75525226895697    0.79957875754259   -0.84975023814321
H         1.57887558034218   -0.00028965331030   -2.28298207499561
H         1.16656523612205    3.08585931028687   -1.75332067169217
H         0.13646558781271    2.01423132126719   -2.78553239142151
H         3.55215963998783    3.56369162782153   -3.83762522596250
H         2.76902737336581    4.25977887763896   -1.77864233409898
H         4.50255643875472    3.95954073312489   -1.75555117489719
H         0.72475286306603    4.00904593074493    1.86036760460216
H         6.56022254205410    2.72641931092945    1.63621303222393
H         3.60668276035522    0.77779841628574   -3.96624179749797
H         5.73143219287199    1.38924117940733   -4.94062602711341
H         4.70386595464524    2.65357331088123   -5.24068967427145
H         5.46658729584890    1.69936907361559   -1.78132253221246
H         5.66371645835384    0.22266901729027   -2.67050130409305
H         3.44039935470347   -0.49086841342260   -1.98060635993875
