37
 energy: -49.842543726695 gnorm: 0.320375249878 xtb: 6.4.1 (79825abcba525fcdf90b791dcacef51065a7a4e7)
C         2.40837097404947   -1.29402353118704    0.46415872248568
C         3.12340460635045    0.04481563580027    0.52956412838443
C         3.07007143505519    0.86280871328040   -0.82760628978866
C         1.43331602593414    0.77947365244680   -1.41255511622673
C         1.11919233979405    1.92310213542022   -2.36318727005811
O         1.93275053085968    2.15131742361144   -3.44637826342411
C         3.11888566997930    2.85866508876340   -3.18325801634574
C         3.37065134134156    3.48112572819082   -1.79447993582539
C         3.30176407995428    2.45018957368163   -0.57683088243892
C         2.28604926826183    2.86833379877331    0.47382357474845
C         1.31267145295083    3.08925559804449    1.31273040136351
C         4.61026821777577    2.67934303876667    0.16189616332093
C         5.33247347041258    2.83192883673427    1.23668614784440
C         4.32310228777522    1.99430390998894   -3.62320641298070
N         5.38509316937216    2.80057796273438   -4.41146205846719
C         4.96658733102154    1.18729389588846   -2.52125221417115
N         4.03191640362918    0.32346237220663   -1.81592632314382
H         1.35020142498350   -1.35285802059904    0.71055587171734
H         2.89637173109112   -1.99753974380289    1.15067325101592
H         2.62148145645300   -1.77692174476284   -0.49953679264656
H         4.20413698653469   -0.09473224565336    0.64126562055789
H         2.78509682175816    0.52660180847619    1.45390256555549
H         0.73562323455675    0.86939087855156   -0.58380649412273
H         1.34666819798953   -0.24709981470053   -1.88224029002271
H         1.03576660379625    2.83383357666854   -1.74090257247791
H         0.12587740765405    1.65561784406598   -2.77146336551248
H         3.07521753288353    3.67769225761803   -3.90623657915098
H         2.65144546364914    4.33371206563730   -1.62098580384078
H         4.44682207324609    3.89977709370652   -1.80882931803203
H         0.56448601956272    3.35144526304221    2.02566620965134
H         6.21221019425973    3.02853603016785    1.81020470871182
H         3.88127351085660    1.32530844194079   -4.36555522950314
H         6.30266573660913    2.80276495513297   -3.96556806230816
H         5.52065996244852    2.39991295986563   -5.34278112881035
H         5.55066644891786    1.73968223911203   -1.76108440957198
H         5.74196474494831    0.57920027688937   -3.00730945674192
H         3.61019132340174   -0.29886430177046   -2.53730729524107
