37
 energy: -49.855106734382 gnorm: 0.328686721254 xtb: 6.4.1 (79825abcba525fcdf90b791dcacef51065a7a4e7)
C         2.79568935815394   -1.35880583684675    0.31514653752880
C         2.97801674161534    0.13906635737685    0.49171633280352
C         2.90307397146895    1.01009600977194   -0.83099284609375
C         1.22107194353850    1.07563167941982   -1.27218711784394
C         1.02636320452247    2.05830644678458   -2.41529695413242
O         2.00180305069397    1.95703515868668   -3.37733807014502
C         3.18771499127643    2.70348844257837   -3.26371625777047
C         3.44911180167887    3.38441210562029   -1.89978817355514
C         3.35859235323962    2.46057744185432   -0.60033453803011
C         2.28171274133597    2.96473513454252    0.34652930551022
C         1.55513545347421    3.54099768427528    1.26306760306667
C         4.62723625426582    2.52398513952921    0.23449126146748
C         5.50733495111753    2.95596538461618    1.09405837854494
C         4.33995791465264    1.74550932434991   -3.61828359249995
N         5.52589641096441    2.67358546327665   -3.98087703799640
C         4.76343674687459    0.83221444649314   -2.49302834819676
N         3.67742535644196    0.17736670613230   -1.77954887877626
H         3.61453539760093   -1.78504038261836   -0.26079714250428
H         1.81371690505312   -1.54499936153842   -0.13811284837656
H         2.86339304604488   -1.80436197880888    1.31725019648993
H         3.99856138513561    0.26392534147143    0.86964777747126
H         2.31603153049115    0.56767911897752    1.25266199488497
H         0.73066597039090    1.36368501775748   -0.34578986333282
H         1.02636871711469    0.01423725448360   -1.61496637688239
H         0.86953237029544    3.09490458022121   -2.06245385077979
H         0.11971970291105    1.79578297112899   -2.99321628795771
H         3.11904468122533    3.51950239033912   -3.98815813768663
H         2.84307971133279    4.33551238270527   -1.85085838202506
H         4.51457054546364    3.82893376223476   -1.92836204627944
H         0.83009258439452    3.83766715050709    1.98632573074263
H         6.34131142266309    3.13630110287243    1.73708006166075
H         4.08643152405321    1.14670914949964   -4.49635653347133
H         6.40990534115899    2.16538926599459   -4.01297830437959
H         5.24956500829193    3.15474261127775   -4.84017603457665
H         5.30610881144306    1.33894723322444   -1.67274467648075
H         5.41004788059460    0.03037905267983   -2.87538115591863
H         3.01470603189282   -0.31051186456815   -2.41854076958222
