37
 energy: -49.851311304976 gnorm: 0.313389931014 xtb: 6.4.1 (79825abcba525fcdf90b791dcacef51065a7a4e7)
C         2.53527774596033   -1.33149199666927    0.34865526048020
C         2.73178678372804    0.16396797012880    0.53038297765118
C         3.02357023030114    0.95265918194521   -0.81375140496019
C         1.54764633632324    0.84743361561366   -1.72953214857917
C         1.10777617001347    2.16260364965785   -2.35170841567071
O         1.88451625025814    2.53036549334647   -3.42347702414520
C         3.22370484661467    2.87429465579098   -3.16896536105091
C         3.47677296380834    3.41161637412539   -1.74266677825912
C         3.41573561871196    2.40650798085207   -0.50320093628074
C         2.33529994321650    2.94795778371994    0.41869208239796
C         1.64536350866091    3.27576314739951    1.47536934296497
C         4.70154164192776    2.41014593734870    0.30741710972319
C         5.44169487316655    2.97197215906905    1.22205409235750
C         4.16004519026399    1.71003365078663   -3.57914893058210
N         5.06144257044846    2.29542256724847   -4.69451973116332
C         4.92307052068663    1.05401974815184   -2.45350274967821
N         4.12655277451642    0.26650719033668   -1.52469560739171
H         3.37565587707029   -1.82017422825747   -0.14006768773829
H         1.65677668416128   -1.46659909390704   -0.29505581977281
H         2.20958039527949   -1.84224602448180    1.26537079273020
H         3.58699895970218    0.34498363338585    1.19051839997724
H         1.86770306725030    0.63605302202360    1.01149279295652
H         0.85744345500982    0.39074634631125   -1.02473335606629
H         1.64301277050119    0.16066961855093   -2.62464417928416
H         0.90973652848776    3.00444484350395   -1.66198850079516
H         0.16108694708717    1.90001374717159   -2.86135322229020
H         3.41709332962859    3.70933303926799   -3.84773056680771
H         2.81040348159353    4.28962745311227   -1.49913234239716
H         4.49489467161166    3.93875895228075   -1.88111240851043
H         0.95494966533641    3.72023713976259    2.15549718468104
H         6.38328675471650    3.17507456128185    1.68429726724802
H         3.60181855982967    0.90411836920673   -4.06157297407376
H         5.45871054860795    3.14672522418707   -4.29674140759197
H         5.86806181484695    1.69240240976429   -4.87339984441047
H         5.52581452051320    1.80542505831985   -1.90923616123278
H         5.67168065399167    0.34040276435200   -2.82441149214813
H         3.72022630123105   -0.62521797374545   -1.87861377326055
