37
 energy: -49.838821357395 gnorm: 0.335675149555 xtb: 6.4.1 (79825abcba525fcdf90b791dcacef51065a7a4e7)
C         2.48902476881802   -1.42507252840823    0.29836119422078
C         3.03171543087964   -0.01882377504149    0.48807826365387
C         3.20740545099504    0.87550463391824   -0.80929537553759
C         1.64275198553367    0.69489368039242   -1.54910436956736
C         1.16837231894787    1.97254103667016   -2.22204006786923
O         1.91118380578350    2.44302994203171   -3.27756513202233
C         3.16715096563170    3.01027744512467   -2.99959694017602
C         3.64019802758421    3.40902589372382   -1.60185863283692
C         3.39363984011581    2.31247548914038   -0.46738504967156
C         2.14129217353511    2.69519838675968    0.30433017002436
C         1.26603988632483    3.32687340807278    1.03573679418584
C         4.45631369186506    2.57951238934371    0.58609849069818
C         5.39515816102607    3.09873699817603    1.32705272831145
C         4.14383958485535    1.95223836572979   -3.61687397880933
N         4.89827330331284    2.59363907347319   -4.80795934092597
C         4.94686356896090    1.14167689438453   -2.62804446772140
N         4.29032791731157    0.29993335407659   -1.63924316982420
H         1.46129387245522   -1.48510366316986   -0.05386219281620
H         2.52833726047330   -1.90061958638096    1.28663824131731
H         3.08155161009815   -2.04542146255400   -0.38822088428361
H         4.02488053592531   -0.18272162916252    0.92015913532942
H         2.43932296462330    0.53027530429926    1.22870839179718
H         0.85211523244687    0.51620348506011   -0.82477850638919
H         1.80802196158997   -0.05869071299314   -2.37781510865015
H         0.87442646267616    2.80655190897359   -1.55747136955634
H         0.24937156472135    1.67076106656063   -2.75988598820135
H         3.15259854030427    3.89704951879113   -3.63899816638402
H         3.09829554050027    4.31446360796722   -1.20087857413076
H         4.74844180361525    3.67222640223248   -1.79196263209595
H         0.37240812959315    3.79708177149530    1.37797743972680
H         6.16005258545143    3.44479668948906    1.98788084723947
H         3.48467879522684    1.22437699108820   -4.09601304261335
H         5.40478009920059    3.39502714840858   -4.43113886118737
H         5.64580846945772    1.95047372308956   -5.07961264593674
H         5.61404016445688    1.79222509748255   -2.03155572963793
H         5.64968594708731    0.54507980112663   -3.22583392866951
H         3.95507899516098   -0.59333205571480   -2.05783378984497
