37
 energy: -49.855641983318 gnorm: 0.320618644744 xtb: 6.4.1 (79825abcba525fcdf90b791dcacef51065a7a4e7)
C         2.64929673101609   -1.37588461457056    0.34664679837125
C         2.98765809240034    0.10169225513320    0.44823154425783
C         2.89782553246408    0.93095328598541   -0.90014707453072
C         1.23708150506959    0.89588644727899   -1.41858484636059
C         0.98099272791443    1.90877685332468   -2.52254718832426
O         1.97690270350074    1.96596222290989   -3.46708677458592
C         3.14304691113251    2.70983202729445   -3.21558140059606
C         3.28857838364157    3.33064779015559   -1.84326616241221
C         3.34109378567842    2.35008841693425   -0.58390541200945
C         2.39650673498833    2.96180561848136    0.43783487680511
C         1.90272266314321    3.49074804505303    1.52246973803767
C         4.63228266765955    2.52646285272821    0.19848535537805
C         5.47812046301548    2.99625504321125    1.07249339618738
C         4.35501985991625    1.91191023926829   -3.64707277238434
N         5.53599251601804    2.85771605382426   -3.97874186951405
C         4.78905795733717    0.92317705097023   -2.59177242073351
N         3.71064262446759    0.22013632223586   -1.91350008623450
H         3.16567317276862   -1.74850153476940   -0.53562744924861
H         1.56945071581621   -1.55454046950410    0.26666763186465
H         3.01142649598425   -1.88637104922568    1.24974227592847
H         4.05496736187955    0.13825688081849    0.69204963938980
H         2.47043531938976    0.57819879434773    1.28870387622106
H         0.75078040497016    1.05509175574122   -0.45949698436812
H         1.04320378814048   -0.14055182975905   -1.83110420431142
H         0.75204242319436    2.90699014060266   -2.10447799872717
H         0.05192761750741    1.58606972408269   -3.03010004263284
H         3.00979688268865    3.60215796201266   -3.83316481029232
H         2.38026300402344    3.99233696075971   -1.73653578264007
H         4.22305775965930    4.00824979564974   -1.80830728864568
H         1.26757168666523    4.06509178188504    2.15769786312749
H         6.28349089643062    3.16352638597506    1.75433894409754
H         4.12342132083356    1.47742218999419   -4.62248633669875
H         5.67290036685729    3.52975718236331   -3.22350507432398
H         6.41722814710386    2.34333271748683   -4.05015304847308
H         5.41736077045505    1.46543039170728   -1.86010768997505
H         5.39797328334944    0.16592084986615   -3.10463185381287
H         3.10761098266084   -0.30623303065529   -2.58044924663950
