37
 energy: -49.852485795407 gnorm: 0.324090758517 xtb: 6.4.1 (79825abcba525fcdf90b791dcacef51065a7a4e7)
C         2.48514383323376   -1.26454952011943    0.54418945707200
C         2.92515100772221    0.18946061955264    0.56120349960151
C         2.98835101184433    0.94627127180079   -0.83059822553661
C         1.46976152601320    0.77629334869805   -1.66310745095446
C         1.08761131554319    2.04920413697528   -2.40061720064424
O         1.89936423783073    2.44444563347225   -3.43604137880623
C         3.22846650303397    2.82611166490403   -3.18245162911409
C         3.59737349509731    3.38733559685135   -1.79590156610029
C         3.31960263955000    2.41579105592716   -0.55929792454589
C         2.23568557490159    2.92109591978036    0.37888466746285
C         1.52618289108941    3.61490466609641    1.22462155623435
C         4.56963644225208    2.54182153379861    0.29623920244955
C         5.52224507617665    2.86125235535613    1.12722476042652
C         4.22682416847733    1.69158064951987   -3.53797920812355
N         5.20641764201824    2.47242021820582   -4.44898724207669
C         4.91240508348846    0.96144816944819   -2.40814444563669
N         4.04653685270080    0.18528487270888   -1.53342048912163
H         3.30015079074834   -1.91917735700888    0.24232541276558
H         1.59290560117556   -1.37588210051911   -0.08501479590801
H         2.19933758418784   -1.50545523496817    1.57743436165028
H         3.93989079874264    0.26417227492756    0.96698008496161
H         2.31515953834643    0.81887540264411    1.21901734702729
H         0.69229995468586    0.61904308023785   -0.91979696703178
H         1.47725581085767   -0.05959849671045   -2.42677868289714
H         1.06387770883531    2.86192226544398   -1.65057999095641
H         0.11847826379690    1.84543127563925   -2.89475232350441
H         3.37790139863527    3.66308175365128   -3.86988213055609
H         3.02880966754920    4.33392060626176   -1.56143887445546
H         4.72724583675623    3.62518156914315   -1.81678423647040
H         0.75069954348744    3.98693321374738    1.85471882795541
H         6.42141381061398    2.99368134149217    1.68889435624699
H         3.70927692753355    1.00681212547054   -4.21406077985383
H         6.05784538578015    1.98907971603854   -4.73572477189280
H         4.76342684798910    2.78098343584120   -5.31778751130875
H         5.54887362226913    1.62591272312755   -1.79370889580729
H         5.71298058015121    0.31514509752696   -2.79364521076739
H         3.61525638676506   -0.63876665333467   -2.00296205435460
