37
 energy: -49.856878813088 gnorm: 0.315250394447 xtb: 6.4.1 (79825abcba525fcdf90b791dcacef51065a7a4e7)
C         2.49275774110006   -1.31769366652822    0.43557435311859
C         2.68740291084492    0.18106289424803    0.59011660305377
C         3.00792930515370    0.98825825379949   -0.73637015834054
C         1.51211373772520    0.87297325823162   -1.61802955369167
C         1.11154586128055    2.13391456577409   -2.36624989862263
O         1.90435401166355    2.53020703677912   -3.41585429566729
C         3.24502936542736    2.82219135596223   -3.10954676187825
C         3.54515576210475    3.41251990855656   -1.74471895249622
C         3.39433026219275    2.47811362635955   -0.45849168374731
C         2.31397420098391    3.07546039803461    0.42830223409805
C         1.35367934022323    3.86827260954821    0.81471930096785
C         4.71161671720151    2.47709018760145    0.29990621636012
C         5.84694900689054    2.57048186105134    0.93420490155834
C         4.17653098225605    1.65314738006143   -3.49175994490286
N         5.21769674303167    2.21180357621065   -4.49332200313429
C         4.90093681592376    1.03978323825498   -2.31759563025863
N         4.06615908309928    0.23052890542758   -1.44263687804971
H         3.47722450565700   -1.71271929346884    0.19334349125278
H         1.78952653206941   -1.63231665983215   -0.34600113071261
H         2.14795098949478   -1.67164915981256    1.41697112360362
H         3.51363990841030    0.38134890156372    1.28087795932792
H         1.81819460780296    0.66075698878797    1.05416630015575
H         0.74869477983347    0.64625605540153   -0.87811373276253
H         1.64735615255612   -0.04793121972818   -2.26270739865923
H         1.03781625248020    2.90700087512078   -1.57851176987881
H         0.09345645941559    2.01474653373056   -2.78362828886231
H         3.50732709862611    3.62470486619913   -3.80422825497052
H         2.85831401824129    4.30541482801898   -1.67227693667913
H         4.65063744641248    3.74068198216914   -1.80667221684785
H         0.76886632091399    4.33518316820751    1.57418657495749
H         6.76062991177686    2.54785254790356    1.48754904650045
H         3.59069966369063    0.92053106064116   -4.05204948121745
H         5.64249145025657    1.38376169468034   -4.91124753961755
H         4.76029329210533    2.78420199569699   -5.20705034301536
H         5.45608727951375    1.75260500995658   -1.67898035213159
H         5.67486740760185    0.37996751526666   -2.73342525589446
H         3.72376127435409   -0.69153864660449   -1.78627652862671
