37
 energy: -49.854773351057 gnorm: 0.321378779588 xtb: 6.4.1 (79825abcba525fcdf90b791dcacef51065a7a4e7)
C         2.69928978541113   -1.25229597604423    0.45193953805785
C         2.74961951658053    0.26058618616939    0.58115160694368
C         2.94470234659144    0.94915169397176   -0.83365893744936
C         1.38148100035525    0.87367542113883   -1.59439574194287
C         1.05958508402355    2.18244764663326   -2.29707601752839
O         1.88302735909495    2.41266424845281   -3.37234575664646
C         3.21899744618886    2.76613685605850   -3.11402310164921
C         3.48705145341284    3.34388742369102   -1.75926716750657
C         3.34522102927183    2.37720297908230   -0.49607703348882
C         2.32231595021410    2.99937385826553    0.44038674984441
C         1.42185676802128    3.75660976787473    1.00234983655191
C         4.63182529726174    2.52912762119327    0.29889488042863
C         5.62070720236439    2.47005196165253    1.14663238743987
C         4.26923721856061    1.68354022319336   -3.61305868647983
N         5.29731971971850    2.43823375993980   -4.49211128995451
C         4.92604136189614    0.99265835055806   -2.44219072843640
N         4.01044957604657    0.25102667187511   -1.58839134276282
H         3.55884952536887   -1.74572534342713    0.00296252344281
H         1.80519513895479   -1.60238742576506   -0.07948565717005
H         2.60323743522655   -1.62230695597544    1.48207624208622
H         3.57525881762777    0.55322726444967    1.23888579024370
H         1.81589897275917    0.57733265912918    1.05949169259113
H         0.66082061011739    0.62382166202063   -0.81985954642415
H         1.41930214763838    0.04747906640125   -2.36765781660645
H         1.07104447320695    3.03435060276325   -1.59155501007780
H         0.07249683028834    2.15281415524514   -2.79676632768540
H         3.38209090190477    3.56077257073378   -3.84707495346635
H         2.98618033490544    4.34125650244710   -1.59002236452103
H         4.59099534834221    3.65413174814169   -1.89592235478212
H         0.78244592755784    4.27580150241390    1.67939929969313
H         6.43858868599474    2.72922843422549    1.78335213406988
H         3.68021655997832    0.90216534774798   -4.09922464322529
H         6.19149268395577    1.94751205889504   -4.47179929782330
H         4.98874719772107    2.45317230997642   -5.46721428403473
H         5.52257834637148    1.65351280137401   -1.78526500226141
H         5.59913349712217    0.19887432805357   -2.79445984370778
H         3.59148568077338   -0.52954857785088   -2.13675670746647
