37
 energy: -49.850462342680 gnorm: 0.334611645422 xtb: 6.4.1 (79825abcba525fcdf90b791dcacef51065a7a4e7)
C         2.55457096224573   -1.27014836487010    0.50443383325317
C         2.87320501347073    0.20902663365958    0.64065036159167
C         2.95113276051964    0.92058290549828   -0.77408762973667
C         1.41331317694848    0.87277330710459   -1.58704722389453
C         1.12341023119483    2.10301645458564   -2.43127430775559
O         1.97848958846699    2.50254339625724   -3.42951245152202
C         3.30462501874682    2.84514317104810   -3.11252701510236
C         3.57280864242426    3.34762631973641   -1.75777207487376
C         3.29745287875830    2.42592604624615   -0.48305962696318
C         2.30058210867609    3.11533021998972    0.43420065586489
C         1.37975063748350    3.82526107392504    1.02420326449459
C         4.53635626900568    2.38499849482385    0.39663084706504
C         5.65131391551717    2.69748104080869    0.99601419649607
C         4.25768453567542    1.63408704812474   -3.54336541053100
N         5.18112571583145    2.29983813009532   -4.59373740510948
C         4.93301964453321    0.99764689070057   -2.35235422807052
N         4.03159294747334    0.22557153099861   -1.51055329844919
H         3.29002348366438   -1.79311597670224   -0.10343976592121
H         1.57056904955235   -1.45661933830625    0.05571252771997
H         2.52272595741142   -1.69118045250528    1.51884680887711
H         3.82084393032430    0.37792366976013    1.16351514963441
H         2.15680184843839    0.74173037485414    1.27623265285013
H         0.65265124133382    0.65201390178371   -0.84250486652226
H         1.47952209316358   -0.00776335117603   -2.29573380117052
H         0.96877460993238    2.95342279852750   -1.74096515157342
H         0.17481829493178    1.85722828703849   -2.94573838400699
H         3.58646027691512    3.68894015083467   -3.74812591058695
H         2.95787528414013    4.28151955633596   -1.60297816708614
H         4.67469558578826    3.67367937235173   -1.64308606547184
H         0.65557538889332    4.47290687404050    1.46343829261991
H         6.59414170373820    2.79119941035424    1.48978260352337
H         3.73713448767278    0.84797670470225   -4.09554975045498
H         5.90228954665856    1.62632295622777   -4.85270785625674
H         4.52545538364228    2.51314615637447   -5.34929158060251
H         5.45228261101417    1.67031171574406   -1.64381743042204
H         5.65106289386592    0.27459535401966   -2.76326783691425
H         3.69928287151008   -0.58477006047605   -2.07486664922181
