37
 energy: -49.859430209072 gnorm: 0.320861809482 xtb: 6.4.1 (79825abcba525fcdf90b791dcacef51065a7a4e7)
C         2.66565813058013   -1.26484291545592    0.48627672641515
C         2.87783352524842    0.23696607670371    0.57341242817144
C         2.85252933609993    0.99103089751120   -0.82108195692466
C         1.22289244916742    0.94440686224655   -1.42951268213965
C         0.97011782944334    1.99328763619979   -2.50012717992026
O         1.90644627872783    2.08221769346246   -3.50144748637397
C         3.15335791002899    2.68316514287502   -3.25535177562930
C         3.36466566833829    3.33522386111787   -1.91431352468107
C         3.33631477818752    2.44776469248379   -0.58696411548300
C         2.36471416646012    3.09026876171367    0.38954833261863
C         1.76846487389761    3.73131841529000    1.35576653847729
C         4.68916324227924    2.62914631572200    0.08185101715220
C         5.74091668073928    2.67435041801233    0.85114129752087
C         4.35930561206291    1.73876893591428   -3.57745557777753
N         5.59767022760535    2.64450052006255   -3.79041759278269
C         4.74594810841792    0.82701183677924   -2.43778554121087
N         3.71042820279146    0.14201520921735   -1.67898556642843
H         3.45565761721086   -1.77478589225817   -0.06122196620179
H         1.67402717499178   -1.46748094121991    0.06202694548488
H         2.63859954799502   -1.68259402270191    1.50218403212218
H         3.85700237000568    0.43779252842392    1.02155350185389
H         2.10089266510839    0.69276974794166    1.19757389198082
H         0.51956922566508    0.99013002775324   -0.60190743036394
H         1.23521184131736   -0.05462442307979   -1.96219440284931
H         0.76207736092906    2.98408912390821   -2.05441266167988
H         0.00664689429088    1.73248167320856   -2.97826500257062
H         3.19961802470318    3.47739977916546   -4.00532627926434
H         2.58828540030829    4.15111123708597   -1.83801001197010
H         4.43254906051738    3.75809105627476   -2.03442471451188
H         1.06089745498736    4.25452211616105    1.95777025476678
H         6.70483417231463    2.86461825122412    1.27087430600840
H         4.05023660604204    1.19824107408924   -4.47531712049633
H         6.42709940208670    2.05104724043262   -3.76539551626941
H         5.49942396428674    3.07558279427187   -4.71279590741491
H         5.39430453024138    1.41635238678428   -1.76217614572027
H         5.39979991815333    0.01956064878081   -2.79519289491884
H         3.13255749175852   -0.31511533898681   -2.41561990082301
