37
 energy: -49.853749904045 gnorm: 0.326946902081 xtb: 6.4.1 (79825abcba525fcdf90b791dcacef51065a7a4e7)
C         2.44534630852104   -1.28688901093730    0.43655324007161
C         2.74722762358960    0.19281399871837    0.60204629768548
C         3.07464168607920    0.95221300245325   -0.75072191245769
C         1.56320779973810    0.92423639727629   -1.61261694521212
C         1.13866760371226    2.18466477348099   -2.34837996353072
O         1.93941060029528    2.58139179109860   -3.39177835474971
C         3.31110021749772    2.78343213664206   -3.15910509712558
C         3.55707585883187    3.34033028683585   -1.71678192087516
C         3.35516912782265    2.39656127877216   -0.44446996175710
C         2.24913321011102    3.00657158711806    0.40108771403897
C         1.50911042827976    3.74342003421531    1.18176441769661
C         4.56414056521544    2.58197724994883    0.45798276615879
C         5.63789069463501    2.95546434798670    1.09642169119977
C         4.21391270434939    1.60796309717274   -3.59109505520669
N         5.24183692435317    2.12103037368443   -4.63002874463213
C         4.99398863517350    0.92093878532398   -2.49605151409591
N         4.08650543181204    0.25300600620932   -1.57537823094747
H         3.31741868342992   -1.82799338747317    0.07517854060064
H         1.62585278390148   -1.47681565576010   -0.26824476701489
H         2.20418043874412   -1.68503534262380    1.43185938896766
H         3.61543637663130    0.29772584933862    1.26169800635783
H         1.86248874817894    0.65757272965963    1.05172180731511
H         0.77915436875173    0.57627807414979   -0.94488208777042
H         1.64754449292126    0.14356553479686   -2.42834080688771
H         1.04160164313800    2.99649434477240   -1.60330224769745
H         0.15458995308610    1.95304730371158   -2.79877567369641
H         3.55841761664367    3.63888321794742   -3.79349296219877
H         3.01339809662896    4.31089333283185   -1.52525483010333
H         4.66555797228960    3.66253248521850   -1.68404885370121
H         0.70979625082701    4.14735334051819    1.76032900655663
H         6.25059310734248    3.21380734316607    1.93270467900630
H         3.62310596459059    0.83163458245388   -4.08314261716357
H         5.46096640135777    1.28954741567091   -5.17901327786670
H         4.65826057772249    2.68532343838612   -5.25234538065652
H         5.63822656883988    1.53145834223731   -1.83547620106738
H         5.67168804139115    0.16384735432289   -2.91411335923288
H         3.69141454599228   -0.59133729571807   -2.04069599295418
