37
 energy: -49.850055701837 gnorm: 0.320172146906 xtb: 6.4.1 (79825abcba525fcdf90b791dcacef51065a7a4e7)
C         2.77783098633126   -1.27779118351609    0.34023113861184
C         2.87876434292194    0.22573397997267    0.53327470321906
C         3.05614160884887    0.95483439364777   -0.86344235414741
C         1.58611726634038    0.66331965971714   -1.74782107598741
C         1.07131626226176    1.97143906912051   -2.32580448938686
O         1.86074540099871    2.44928861510217   -3.34350941836896
C         3.14756244085194    2.94687358341770   -3.07332308020144
C         3.49236858463214    3.45141987184182   -1.73479021564955
C         3.31204028261582    2.42284641481541   -0.52658395303234
C         2.19709191711829    2.95509393576074    0.35885297479861
C         1.45152724467707    3.17505516052502    1.40565091150802
C         4.55346891892657    2.46775394643409    0.34934427885475
C         5.30522727886716    2.85103227093105    1.34332283920671
C         4.13734533555937    1.88032214836522   -3.61414552820218
N         5.17720535774564    2.55339436151490   -4.54415325586959
C         4.89659040904313    1.05983210317796   -2.59926414391164
N         4.14797385503608    0.29384055148372   -1.61431264549778
H         1.78961078537750   -1.50639096493929   -0.05354395106017
H         2.87001128347083   -1.78190257525963    1.31067253082421
H         3.50565609859286   -1.79034384340931   -0.30387769153933
H         3.70165884256150    0.48168754190006    1.20948896568934
H         1.90728195753309    0.55784262632710    0.91654672368167
H         0.84739205222863    0.18647498833395   -1.10861153697409
H         1.81535107900741   -0.05730701794667   -2.59050378177155
H         0.92715041233988    2.69408537460527   -1.50080244014710
H         0.09685566502356    1.85153657644387   -2.83664860195955
H         3.23766844885977    3.77809116061268   -3.77785743598539
H         2.85030803935009    4.33352830712088   -1.44512880876127
H         4.59482699279190    3.78241245952703   -1.82778306886641
H         0.83783408728332    3.52376037789664    2.20476769820581
H         6.06767295268139    3.12943965907721    2.03807497821109
H         3.52640041361763    1.30836938222168   -4.31661667026643
H         5.94655970181471    2.98993344196147   -4.03592773565328
H         5.66728352896266    1.89437799150891   -5.15389649761577
H         5.51697528165426    1.82697107864872   -2.09850792476264
H         5.59618219183824    0.38002304431380   -3.10490295521763
H         3.70573149284273   -0.52311146187363   -2.08605848843390
