37
 energy: -49.819266129798 gnorm: 0.336673485968 xtb: 6.4.1 (79825abcba525fcdf90b791dcacef51065a7a4e7)
C         2.71624196749835   -1.29310398349773    0.23377331808999
C         2.76375505053855    0.20086575898903    0.50550515841669
C         3.09720939220681    0.93652706856941   -0.85885523593088
C         1.81840333289591    0.67304053225350   -2.00920650367622
C         1.28256558796948    2.07347360372401   -2.25805668490304
O         1.92311069970841    2.79862585800741   -3.23330949525749
C         3.28435981019975    3.11057382977203   -3.07151062571267
C         3.52848733211315    3.48862034120538   -1.65151107933808
C         3.25040658996064    2.42593051065824   -0.49237112142140
C         2.19357627685119    2.95785428346129    0.46186296387206
C         1.26367998206627    3.05999815420701    1.37010030939651
C         4.42377528977739    2.51327052875214    0.46991248156452
C         5.42966149936360    2.49093638285784    1.29920756997757
C         4.11575788966667    1.77126297638977   -3.55436632980240
N         4.91240406060774    2.19198471539966   -4.81436535362585
C         4.97836083715148    1.19969590041376   -2.45488078977810
N         4.28286012772629    0.33648538384508   -1.51230685435291
H         1.66711028446143   -1.58089973448903    0.21397018067187
H         3.20081562700879   -1.88254010107382    1.02252893930298
H         3.08655315290685   -1.52494249624175   -0.77441135659067
H         3.49275730257485    0.39823462648942    1.29893729719630
H         1.74579699722657    0.54757091838723    0.71652305795866
H         1.06963083784186    0.27252252566188   -1.33052418150229
H         2.17866692708387   -0.01822760312680   -2.83037859269198
H         1.13688385078695    2.49793469645255   -1.24699809679482
H         0.26564022866125    2.00152371810822   -2.68886731410993
H         3.47545096127264    3.92170831262190   -3.77929267868563
H         2.88989548520791    4.41767751062617   -1.59394373514960
H         4.60307672509461    3.85870250661784   -1.44677920183293
H         0.60876532965490    3.57319753559576    2.03682025970139
H         6.36950013604416    2.63113421045352    1.78763625309022
H         3.32694429075815    1.08094764506485   -3.86272848588755
H         4.90118908634118    1.39864660812178   -5.45565664998848
H         4.24116791099471    2.77254471102414   -5.32294979462968
H         5.43551280480941    2.03170299662458   -1.88662674517629
H         5.73853711533955    0.61567328022112   -2.99180651254387
H         4.93068159985650    0.18211130156577   -0.71103971889995
