37
 energy: -49.857813758014 gnorm: 0.315695575616 xtb: 6.4.1 (79825abcba525fcdf90b791dcacef51065a7a4e7)
C         2.69382483790490   -1.40253326319814    0.29417962580772
C         2.84471753045665    0.09349672780573    0.51135913421738
C         2.97823175370052    0.91701872203656   -0.83691907267179
C         1.43955347891762    0.73256236289963   -1.62845122583976
C         1.01274477298799    1.97858244394947   -2.38708788151256
O         1.86257410741672    2.21058650322332   -3.44123497511998
C         3.10157040391114    2.79443705086904   -3.12422351260693
C         3.26243622563231    3.38569749352132   -1.73448610442990
C         3.25713818945242    2.39380939033624   -0.48293749814086
C         2.27735667090737    2.84264009132372    0.58896500863554
C         1.42305314001680    3.53245703844611    1.29206782622546
C         4.61738587114376    2.47723731724801    0.19024746576239
C         5.67343195086551    2.65539448608907    0.93392947028831
C         4.27248056458070    1.91776440471272   -3.61933925385732
N         5.30037545893087    2.79376248344583   -4.37783045063053
C         4.95007243001121    1.18814688618667   -2.48436402921567
N         4.12764154263126    0.37760896467067   -1.59896300729633
H         1.83083737575379   -1.60947397233493   -0.33536308914391
H         2.52681977960941   -1.91024074405654    1.25268075912003
H         3.62668379135720   -1.77047156225828   -0.15494328534874
H         3.78239667136582    0.31160516052350    1.03396783337608
H         1.98431916686813    0.38933034791624    1.12223452649704
H         0.81853602196772    0.40395586619431   -0.79896963724454
H         1.53643661986311   -0.10462833394386   -2.38455339231557
H         0.86829623538166    2.82595257695785   -1.69086353978703
H         0.02230057368069    1.79267596685127   -2.84465846676077
H         3.02173967253282    3.65569559494910   -3.79300687541898
H         2.43814034921165    4.12660387876518   -1.52034876913592
H         4.22246985388920    4.02722820064974   -1.71468493708190
H         0.89158002160143    3.80107020197415    2.17648037269534
H         6.67466851920476    2.83140270373969    1.26265586004745
H         3.83172529975776    1.21843408630805   -4.33384696694120
H         5.56337132566533    3.49029585470427   -3.68037787754910
H         6.13690855879331    2.21554232812821   -4.48801137235599
H         5.56417332631974    1.89904342309214   -1.89986202596839
H         5.67533720891056    0.48925542124922   -2.92343275648556
H         3.80259637630008   -0.48023738885844   -2.09290461611342
