37
 energy: -49.855008570360 gnorm: 0.318550342438 xtb: 6.4.1 (79825abcba525fcdf90b791dcacef51065a7a4e7)
C         2.77912823003973   -1.39277560751486    0.25401355067920
C         3.14087112221043    0.06180649718977    0.50175183601607
C         2.95284771671900    0.90570857956981   -0.82728733574527
C         1.27086684470633    0.85803531091771   -1.27084763216862
C         0.99558843958807    1.68482414120798   -2.51620032063162
O         2.01945504485219    1.89499880617247   -3.40770784206539
C         3.06649089772535    2.80039544956899   -3.16181682370014
C         3.13160297159803    3.35111186069041   -1.73251687719741
C         3.26308679653036    2.36401847053028   -0.48407679040103
C         2.26310846978029    2.74245314027222    0.59630573478980
C         1.70360294765636    3.44140672245117    1.54417334391274
C         4.58488750655357    2.58216101655743    0.23402399230721
C         5.73475752305126    3.07300920372476    0.60402839293937
C         4.37161587352417    2.02396544339332   -3.66683352399248
N         5.44162359488866    3.05847894129131   -4.09591946195430
C         4.81384297639034    1.08274202790457   -2.57222177024756
N         3.76172388293774    0.31818293944558   -1.91969279034452
H         3.23875266473541   -1.65284908324206   -0.69730291249111
H         1.70589037103053   -1.61497445920698    0.19770931977102
H         3.28155898015856   -1.97403943915988    1.03951435118864
H         4.18194123295030    0.18946496320650    0.81767849308298
H         2.51880804920370    0.51051148936874    1.28448613503455
H         0.71551482171101    1.23752604228214   -0.41688303538486
H         1.12194899098400   -0.24796668523634   -1.46202333474592
H         0.55317002594205    2.63940830789534   -2.17463792193127
H         0.20037127636682    1.17717309471368   -3.09484688707320
H         3.02582577004040    3.65514811453610   -3.84237148050018
H         2.16981609734531    3.91758924769367   -1.56420127165910
H         4.00459687473175    4.10640398486707   -1.70036476257672
H         0.90780547591596    3.61115008675760    2.23315509538353
H         6.58454088269735    3.25482615997042    1.22557924244698
H         4.00785227563661    1.48250713862760   -4.54338832476135
H         5.78907073249141    3.41444486238796   -3.20522624626702
H         6.21181107300470    2.52103314105055   -4.50117156995007
H         5.45664941325910    1.47943852391911   -1.76378614294320
H         5.44154065949438    0.30969191884195   -3.03658022443622
H         3.05546890601883   -0.08665146536529   -2.56995892934127
