37
 energy: -49.855092014227 gnorm: 0.324493468160 xtb: 6.4.1 (79825abcba525fcdf90b791dcacef51065a7a4e7)
C         2.76941533260698   -1.41356695377797    0.21758477454249
C         2.99023785007626    0.05877369972041    0.52006071302568
C         2.95577012578075    0.88946035964598   -0.82999124707524
C         1.32386016325251    0.77896722570375   -1.42390982124634
C         0.98118949715972    1.75270242162975   -2.53956114308360
O         1.92761121015023    2.07896595973711   -3.48035863508457
C         3.07847194906523    2.81900279630962   -3.15731902112618
C         3.15751768010812    3.40281924193234   -1.75874402640908
C         3.28011253487381    2.36575048448021   -0.55056236292305
C         2.34405759864413    2.80088007037879    0.56517023659619
C         1.67622242896789    3.47645676859958    1.45827038458883
C         4.61201936428105    2.55523648881817    0.15691996448963
C         5.63610800971885    3.02938964691495    0.80995712325241
C         4.30715696031038    1.97516570914738   -3.57842098130257
N         5.45583875339845    2.86353574300747   -4.11747409978534
C         4.84500389372364    1.11238784087495   -2.46218792038976
N         3.88697799174947    0.24980049941320   -1.78733333908585
H         1.71179771792711   -1.64121392718113    0.10131920140805
H         3.10867180491815   -2.01408176627855    1.07120588729709
H         3.30614262633733   -1.67449992503250   -0.70499508918529
H         3.93014566371955    0.12725168338373    1.07846681950479
H         2.25284058509371    0.54108388314467    1.17166932278635
H         0.67090585919380    0.96768949090646   -0.57554716250889
H         1.12901249621848   -0.28055116579811   -1.77236391682750
H         0.48436834884532    2.63727911550198   -2.09874068579987
H         0.20700489253146    1.24075800744749   -3.14243997450881
H         3.16389038621196    3.69925448751913   -3.80018064115286
H         2.25960685272115    4.02928162075197   -1.48385896161524
H         4.09242870097405    4.07824965144986   -1.70083503203626
H         1.18882814996459    4.01079913927716    2.24167787737478
H         6.46879018995859    3.38854623017609    1.37490095219399
H         4.00544943795338    1.36989475882307   -4.43659871197925
H         5.90982714386743    3.23525067334482   -3.28291540994937
H         6.17540121571750    2.23157498384016   -4.47680886346699
H         5.32376203805916    1.76966962656060   -1.71191618141839
H         5.63609280614047    0.49221566239380   -2.90581437164300
H         3.37272702945158   -0.16613307559817   -2.59236641189388
