37
 energy: -49.856399682177 gnorm: 0.324278094837 xtb: 6.4.1 (79825abcba525fcdf90b791dcacef51065a7a4e7)
C         2.67014343909956   -1.37419379224649    0.37322491693077
C         2.90890415296843    0.11804018960080    0.52902075297271
C         3.02585455803477    0.97247558451507   -0.80144210061070
C         1.54586611112944    0.81105454112436   -1.70236139509084
C         1.08413274608005    2.12515062578054   -2.31081440821692
O         1.82970750704660    2.62404294981341   -3.35124057139494
C         3.17644256438399    2.93621889657012   -3.09562285740973
C         3.42862949921144    3.48079150483117   -1.66907405474195
C         3.27662067319886    2.44411267135335   -0.46390422058695
C         2.11890277737065    2.82489829589120    0.44443900071821
C         1.17148526831593    3.39166376432579    1.13813379940093
C         4.61713437018067    2.55887215526543    0.24339009985773
C         5.70671148380229    2.54544117678516    0.95940517806654
C         4.18849943999445    1.81456453002097   -3.51630786161578
N         5.19160248332186    2.46686720634827   -4.49994140431448
C         4.95680612705697    1.12167984957642   -2.41664569789643
N         4.15367740853556    0.32041217715085   -1.50546315026600
H         3.33032145726075   -1.76815237183937   -0.39674746491179
H         1.65645981214576   -1.63264553296072    0.04151691225520
H         2.83794988493754   -1.84918066176974    1.34972083541397
H         3.87551825344194    0.30597529881127    1.00888624213534
H         2.09945261666163    0.60338547133868    1.08597657497528
H         0.77556910601032    0.47514806996203   -1.01280067700185
H         1.72621989305438   -0.03901251524851   -2.42818754859463
H         0.99999792798304    2.84124486694474   -1.47191022623228
H         0.09060141411759    1.90198972207979   -2.74441154170036
H         3.39667954613762    3.78363579029424   -3.75044397183611
H         2.75056694077353    4.33905502606667   -1.39001194589852
H         4.48552889033506    3.94606501657530   -1.67920036078621
H         0.24681885085351    3.74064573010452    1.53814113777296
H         6.71357304591129    2.47088045498626    1.30895502064840
H         3.59065296413813    1.18981694073448   -4.18422957168769
H         6.08574533602381    2.59431268486125   -4.02556616901197
H         5.39661324248355    1.75963576596797   -5.20991343831673
H         5.52040373931349    1.90054168726364   -1.86904332559456
H         5.70349537410871    0.40391308457996   -2.78339583900261
H         3.74174871868080   -0.46589855687556   -2.05095670973965
