37
 energy: -49.852747407084 gnorm: 0.334389543785 xtb: 6.4.1 (79825abcba525fcdf90b791dcacef51065a7a4e7)
C         2.77953378512147   -1.35531818464187    0.38928658582081
C         3.09233012534303    0.12698186101124    0.50324404184037
C         2.86268133931466    0.99074671554928   -0.80635145189527
C         1.21316813489301    0.97673250811540   -1.36041635945913
C         1.02438903043597    1.67736649511634   -2.69598206553608
O         2.15157660329058    1.74973416912047   -3.47794943796529
C         3.07657477442977    2.77222977473766   -3.20341224198636
C         2.97757653077150    3.39840587576977   -1.82017170470933
C         3.19784113057377    2.43851883387118   -0.56305421633738
C         2.39292509654481    2.88153779986217    0.64782985000776
C         1.65772244049271    3.41794923265639    1.58151894789380
C         4.63778831545556    2.58546925689661   -0.09897484787190
C         5.82992459099358    2.81347107574060    0.37732604823377
C         4.38536518145657    2.00678857195547   -3.52060176335372
N         5.53533907137542    3.02770754932825   -3.70643485389635
C         4.76827600594202    0.97028478628918   -2.49167979212383
N         3.65948335349587    0.29025621071241   -1.83942275171390
H         3.20579774224514   -1.79060996041146   -0.51222101575485
H         1.70335231144607   -1.55574116765907    0.31153015978173
H         3.09509526980827   -1.85506745165075    1.31556269357752
H         4.16628375115953    0.17928959941728    0.71257827766639
H         2.54237663473728    0.58251843779480    1.33451367629829
H         0.72659924898469    1.49111556896544   -0.53558582937266
H         0.90314105774014   -0.10946078337197   -1.43808512438045
H         0.65651900024600    2.69223087360068   -2.45442091269981
H         0.21035664220762    1.27123624665723   -3.32631631249428
H         3.01097901417832    3.59898786614741   -3.91585779522083
H         2.04534235828393    3.99761687093576   -1.60535458393189
H         3.79665723004927    4.21197580352216   -1.79137782822064
H         1.13385073377365    3.86968274711764    2.39287431932424
H         6.86338098665817    2.83799149452829    0.64729128372378
H         4.23123466728797    1.47508104905897   -4.46261039627293
H         5.81209238267599    3.32631383278317   -2.77101647313580
H         6.37868971317323    2.53037213445885   -4.00254833010951
H         5.36706149825958    1.38834495940380   -1.66052516466980
H         5.31832506871544    0.20917201845072   -3.06211209290025
H         3.03626307993974   -0.00187076559725   -2.62159367915509
