37
 energy: -49.829946368733 gnorm: 0.327962921367 xtb: 6.4.1 (79825abcba525fcdf90b791dcacef51065a7a4e7)
C         2.67877621317651   -1.47412118656895    0.28900202187188
C         2.79993723765304    0.01596500051016    0.55919535774641
C         3.02254974927631    0.90540605498457   -0.73432964250636
C         1.42602104895377    0.79498289928593   -1.41768969913668
C         1.08306971062673    1.87007191884304   -2.43593783625939
O         2.03178485886125    2.01259873498192   -3.41924223995754
C         3.12697520909702    2.83291927117222   -3.09656303899569
C         3.18915585748374    3.38584891347818   -1.74071219778867
C         3.29005318382518    2.40152022029611   -0.48725268093868
C         2.33561840111905    2.87484060199752    0.59691423810812
C         1.37166686801929    3.64263196706229    1.02274212131986
C         4.69091981929130    2.48332154629275    0.09695034161080
C         5.86297981814791    2.74940787754833    0.60243001338385
C         4.32051354433113    1.98357205181695   -3.47885439236449
N         5.41870110090754    2.96029095999133   -3.96799006717365
C         4.96125537210136    1.13282914370175   -2.40865458183131
N         4.02511472796261    0.31612024656043   -1.65107519449078
H         1.86760398825289   -1.75004655017290   -0.38163995571774
H         2.52471238782617   -2.02409408888651    1.22611255036508
H         3.64408564199272   -1.87603208150844   -0.04857929787836
H         3.59717114805169    0.11193543262570    1.30427326000135
H         1.90820084991540    0.54048806891145    0.92065543197872
H         0.79413967284170    0.79447820889262   -0.53315010750923
H         1.32923161107955   -0.20165356108425   -1.94619008950875
H         0.86793549911545    2.79920776517841   -1.87553288763475
H         0.22009709684879    1.52204989513793   -3.03516292714116
H         2.93236180548102    3.63798311331369   -3.81029145023278
H         2.37244847575490    4.14003324289422   -1.54461066508412
H         4.11385083980854    4.07680291859514   -1.70694747251283
H         0.68373494187647    4.24187953846790    1.57451588498170
H         6.58831849054062    2.54688909964665    1.36031163628887
H         4.02879046974903    1.32050962152055   -4.29683680725207
H         5.89794234216463    2.38388315473524   -4.65997816650423
H         4.96988320364296    3.78602529275170   -4.37171189899700
H         5.63459575559932    1.64106544021154   -1.69280195474178
H         5.56815948365566    0.37447598445161   -2.92227653599569
H         3.47649606482971   -0.31643805957547   -2.27109180004278
