37
 energy: -49.851451054640 gnorm: 0.329513766866 xtb: 6.4.1 (79825abcba525fcdf90b791dcacef51065a7a4e7)
C         2.54764998738134   -1.29834827543891    0.41374655229245
C         3.17931586485887    0.07823022100505    0.53236838816345
C         2.97464110692076    0.99223010610736   -0.74692090655266
C         1.31831335101396    0.95924328203111   -1.27943228278843
C         1.06555073839634    1.98056389322280   -2.37637191653512
O         1.96652249818661    2.07410597473755   -3.40921345482883
C         3.20020542130284    2.73589289174054   -3.28055081928153
C         3.40811434350813    3.36751087543740   -1.90292570156925
C         3.34762617048055    2.48156631503305   -0.57563996245397
C         2.26520237087920    3.10323507814356    0.29170224221322
C         1.39611556682576    3.44106908266683    1.20307036438748
C         4.61116446208773    2.59168735788992    0.26206902217034
C         5.53411178372038    2.68818796102542    1.17797958002254
C         4.40856936695789    1.83183472512751   -3.62856793598786
N         5.60614999231465    2.71203155561900   -4.06480597737968
C         4.80340619564509    0.88980831376862   -2.51666356100707
N         3.71360629204140    0.25101201157407   -1.79446226573526
H         2.79900822661977   -1.78141654393674   -0.52825128763773
H         1.45100617012379   -1.25751245439599    0.42306170050428
H         2.93402799396998   -1.88783445564462    1.25667827412251
H         4.25338916526379   -0.08396111544005    0.67376792116160
H         2.80590584316264    0.62574444572714    1.40515974307900
H         0.76706928025690    1.20753625687134   -0.37601366969378
H         1.20155057447693   -0.13265213037639   -1.55528723464408
H         0.79826430081047    2.98532833191871   -1.99869978439007
H         0.12678457360800    1.69426650233201   -2.88790262187579
H         3.16435915597857    3.57291937138289   -3.98305500392245
H         2.75793527603157    4.27824934113033   -1.75432089011669
H         4.49492492375027    3.75796612278620   -1.90052337881759
H         0.61821125759196    3.83204661647409    1.81854068362611
H         6.21803915693455    3.15725849551707    1.85157500551618
H         4.01840885113176    1.27510738724419   -4.48395019728358
H         6.37407126358256    2.13981925949592   -4.41642461198059
H         5.29004332545687    3.24733300157642   -4.87708360714858
H         5.46102295857706    1.30174232074514   -1.72800206460976
H         5.40642645652206    0.08249266423556   -2.95466770891439
H         3.07355003300756   -0.14489914175842   -2.51495888844204
