37
 energy: -49.851758926332 gnorm: 0.323128756606 xtb: 6.4.1 (79825abcba525fcdf90b791dcacef51065a7a4e7)
C         2.45832285593599   -1.24066820401304    0.56375796586376
C         2.85154744551198    0.22676232767259    0.57171625389239
C         3.03183581958681    0.99913466411399   -0.80116601420398
C         1.55348824648442    0.82653198025789   -1.70270630607470
C         1.03962613210398    2.03095844197699   -2.47443418226675
O         1.89110095460012    2.45513361922367   -3.46555875657531
C         3.21083927826200    2.82031117746951   -3.14708480146021
C         3.45399453467978    3.40426628790991   -1.79875921127756
C         3.30551675944235    2.47282470737274   -0.51011072078755
C         2.23457434739954    3.04307907987427    0.40547002949742
C         1.52323047219976    3.53576440600132    1.38080923384609
C         4.61847441150842    2.52492557425064    0.25398328770400
C         5.57727782033095    2.56693042615846    1.13657485074776
C         4.21971578713424    1.69069900353340   -3.58732930271472
N         5.26899189871524    2.39796354282654   -4.48066348235042
C         4.99127061657108    1.09081446791468   -2.43646749122476
N         4.19187292347795    0.36076879432665   -1.46420420426355
H         3.25309745210487   -1.89106946017188    0.20430366536752
H         1.61071018339881   -1.47424433017621   -0.09303496102617
H         2.24149331766891   -1.45167767344592    1.62006084071747
H         3.83694305227749    0.32642955174895    1.03968554217130
H         2.13067070370908    0.74419969793447    1.21480793533348
H         0.79311933955002    0.59673557104097   -0.96060297565207
H         1.73106629656324   -0.02085459962424   -2.43234122327935
H         0.84183506056078    2.84946787824142   -1.75711218266490
H         0.13237579256337    1.61241677038771   -2.95049243627131
H         3.37269452109688    3.54582101554084   -3.94886330393188
H         2.82312958411087    4.33754041212892   -1.72616733478228
H         4.49135936945497    3.91104646926813   -1.82457294890354
H         0.64271762982862    3.83329775789668    1.90327770097036
H         6.54392898226067    2.54876035851841    1.59129451011705
H         3.68629539719489    0.85902693933336   -4.05384150514041
H         5.96822166138878    1.73939010724106   -4.82435582126488
H         4.78779547137740    2.86943443126067   -5.25035901330576
H         5.51063072073485    1.89176717953537   -1.87711409236250
H         5.61543870140207    0.30026617703506   -2.87542902511713
H         3.77882465034142   -0.51611130114430   -1.84631081451040
