37
 energy: -49.808220167092 gnorm: 0.347092049668 xtb: 6.4.1 (79825abcba525fcdf90b791dcacef51065a7a4e7)
C         2.82041250198247   -1.54334312617870    0.08307982161664
C         3.12973109637134   -0.08310399571559    0.36603735653015
C         3.15065549941024    0.93181083768002   -0.85190299353924
C         1.56029881926417    0.79287414686724   -1.54439151847337
C         1.03518529289647    2.11251376698165   -2.08574939149157
O         1.81054526490633    2.59443952294066   -3.11230984061553
C         3.16704108627752    2.95530881749202   -3.03368420273975
C         3.70951306656464    3.29028054792085   -1.56610352012310
C         3.41316380605685    2.30434282880685   -0.34530542769880
C         2.15553482499996    2.86543946393372    0.29807302730272
C         1.42870451547993    3.78572397726860    0.86801132757447
C         4.46901553492977    2.48609235443879    0.73291356981388
C         5.34094955818775    2.90963685973915    1.60490981606431
C         3.98114848529962    1.90734067975374   -3.65287222271240
N         5.00033338304207    2.59248364945354   -4.59684822805996
C         4.86016102668631    1.03644689955742   -2.78770045031482
N         4.07420019547435    0.29120471946532   -1.81601175467503
H         2.03883185972788   -1.61466720375667   -0.67053839902987
H         2.37348054926026   -2.14193419807764    0.88702170785925
H         3.62065515790460   -2.23577531439543   -0.21266527916739
H         4.11993616573272   -0.04658415897252    0.83304221121707
H         2.40534800358157    0.11952332373931    1.16302099755174
H         0.88631551066987    0.51401020401685   -0.73837289680416
H         1.48345724223353    0.09589666157274   -2.43337006100964
H         0.98911087397037    2.79870064136258   -1.21934614950959
H         0.02747437271248    1.92929650100026   -2.50510831349018
H         3.36645576915102    3.95902933796298   -3.41863785297974
H         3.52436031722281    4.32326154787571   -1.15025561355988
H         4.83953378653183    3.08355543297609   -1.68415526067295
H         0.55144837915295    4.27111355276108    1.23080733326924
H         5.83298491285735    3.21802299494283    2.50174524457009
H         3.40937712604876    1.27580533542591   -4.33704324767102
H         5.46245398719124    2.01693689570518   -5.30108976075121
H         4.47332227566351    3.27988975382340   -5.14090534920811
H         5.68136519415341    1.64482463682640   -2.36386483006472
H         5.35742736545559    0.31789439163002   -3.45376959705974
H         4.56821738985353   -0.46835818295174   -1.30167310330279
