37
 energy: -49.854886814233 gnorm: 0.310987919221 xtb: 6.4.1 (79825abcba525fcdf90b791dcacef51065a7a4e7)
C         2.55117716287718   -1.31695718522227    0.44224232257849
C         2.82541799954209    0.17035498324854    0.58624147024168
C         2.94832494695468    0.90510601550946   -0.81336684954158
C         1.40365872941628    0.77895579336895   -1.60467622583302
C         1.05454674226024    2.01298985470444   -2.42048382876553
O         1.88271399503320    2.35296550626693   -3.46250946850506
C         3.17600672678493    2.79960871855347   -3.13940994362312
C         3.34569777665715    3.40799588854884   -1.76814544154925
C         3.26777573052760    2.39162962341988   -0.53884816205809
C         2.22719979299988    2.88573574918599    0.45284568741464
C         1.62823282163914    3.80364031296215    1.15905059385427
C         4.63298877925739    2.48535853168324    0.12283172813905
C         5.72938047088608    2.72528525015429    0.78645560506890
C         4.24656546099129    1.78989041745513   -3.53847417284005
N         5.43241609382524    2.63156273570580   -4.07194903510873
C         4.90401045155150    0.99685376927247   -2.43461721696583
N         4.07264583505909    0.24006499991679   -1.51081913871474
H         3.39738983481013   -1.77149196155454   -0.06885267625982
H         1.66490455081132   -1.48387721169499   -0.18309003707963
H         2.42763922864161   -1.85550262522974    1.39199123472278
H         3.72945869251131    0.34055499678572    1.18094786249424
H         2.04944148936531    0.63942364415010    1.20171418836375
H         0.65219454318274    0.64629885419441   -0.83047448816715
H         1.35426779069097   -0.12500580116030   -2.28466083064781
H         0.87418324526032    2.88679749967509   -1.76660382076469
H         0.10294354292903    1.66380035468248   -2.86481457803308
H         3.38641419738372    3.66525977723392   -3.77327692707724
H         2.52369805273123    4.16038783682144   -1.58791343139103
H         4.37400395834212    3.93115487704272   -1.71805173576025
H         0.86565185085202    3.93019001943547    1.89339228336000
H         6.63649960526155    2.71295083374596    1.35081132227011
H         3.86621678880246    1.12097270979793   -4.31418891275460
H         6.17118281371095    1.96541996855118   -4.29831864935182
H         5.17021400024110    3.21418316311197   -4.87074156786268
H         5.55627215768738    1.72246882839936   -1.91291438822312
H         5.57903838325892    0.28767849037218   -2.93326272407050
H         3.67605412764052   -0.55860888583685   -2.04967726583997
