37
 energy: -49.853081016061 gnorm: 0.328637747530 xtb: 6.4.1 (79825abcba525fcdf90b791dcacef51065a7a4e7)
C         2.46798605191191   -1.32913015001508    0.35231237936681
C         2.67135706733549    0.16281750233947    0.55423739088256
C         3.02102610390449    0.95966069901627   -0.77114599924009
C         1.55618768778415    0.84156843926866   -1.70301549877693
C         1.08344079238873    2.14602725642099   -2.32362717807209
O         1.88338250225559    2.57464196329314   -3.35495863305129
C         3.23944299374020    2.85885237518647   -3.11660188930344
C         3.62688195354400    3.33523469178805   -1.74599399479964
C         3.42060580379006    2.42911741494770   -0.44728477268381
C         2.34467406256027    3.12885895253668    0.36704225929612
C         1.42661185859648    3.69267554956001    1.10141826104393
C         4.67258882816218    2.55159852040826    0.40591441169195
C         5.61071659137861    2.89461161179305    1.24394459590502
C         4.15055377143429    1.60969262607260   -3.53929451691486
N         5.15043822774853    2.08606690192418   -4.62213710322017
C         4.96919952186559    1.05807698357697   -2.39684953429103
N         4.14678428209488    0.29701648409431   -1.46856113838408
H         3.38471319047924   -1.79471796836975   -0.00368647414343
H         1.70613647652130   -1.55828923440485   -0.40363294716468
H         2.17056370383323   -1.83803930167412    1.27960264164000
H         3.53169612860678    0.34296319645524    1.20791738959841
H         1.84843166465955    0.63292228146527    1.10447997197427
H         0.91400090017567    0.33581502544567   -0.98643038059886
H         1.84847672407039    0.08657404811626   -2.49454293397125
H         0.85909343323343    2.88230602418879   -1.52915144216697
H         0.14707263939080    1.90342037165517   -2.86146391184035
H         3.48698010108450    3.63425471331954   -3.84659298945631
H         3.10626968368747    4.32638161602610   -1.60159385036907
H         4.71341286417562    3.72237036061180   -1.68947087835256
H         0.80541960700431    4.21549958766482    1.79248806975611
H         6.55194317383815    3.09944159310251    1.70616942263660
H         3.47457745496706    0.84380930411334   -3.92701622962862
H         5.63802059909443    1.30660957788835   -5.06426306497421
H         4.60170713675974    2.55480004430357   -5.34701601842964
H         5.50617105702042    1.81556904404783   -1.79518206995795
H         5.79362130237189    0.42632626184441   -2.75526183876296
H         3.73274521101547   -0.53190496509332   -1.94499992571965
