37
 energy: -49.856366789240 gnorm: 0.317217116177 xtb: 6.4.1 (79825abcba525fcdf90b791dcacef51065a7a4e7)
C         2.54695636653140   -1.37531474000048    0.29997846697148
C         2.76943272196835    0.12065240823247    0.44360242024202
C         3.05462909311105    0.87685441934178   -0.92046876334415
C         1.54260476697422    0.76857509021009   -1.77494881269961
C         1.05490704741622    2.07609390677755   -2.37728324419363
O         1.83532058277132    2.62472792885354   -3.36582626273718
C         3.18503346668849    2.89613405276127   -3.08103967797085
C         3.46895952702269    3.38855446775424   -1.68247387486686
C         3.33803488511459    2.32858969193013   -0.49521759695431
C         2.32466628625395    2.94571584285084    0.45485355056380
C         1.67178807489025    3.59582402898662    1.37742875735047
C         4.58700882759497    2.46759272596032    0.35985802384754
C         5.41753127126699    2.97917958863727    1.22504451013821
C         4.13317638141445    1.74509794474459   -3.55668212575886
N         5.08065947693410    2.43892636623182   -4.56669566455703
C         4.96507104180053    1.01290914092745   -2.53125926203261
N         4.19234936275353    0.21081556414110   -1.59485851609996
H         3.47520881749647   -1.84522293905095   -0.01850154583432
H         1.85768191120464   -1.64062969611071   -0.51174235780995
H         2.27077327003524   -1.81512164326162    1.26828037921152
H         3.66719731567085    0.36167609278079    1.02313639665139
H         1.92619307059380    0.54215576564401    1.00239883186415
H         0.85577726045815    0.42851982739073   -1.00403052152753
H         1.67871921736562   -0.02908519898882   -2.56689326227814
H         0.93044899617426    2.72333960175292   -1.48890660110931
H         0.05901084134209    1.94866509882155   -2.84297028082827
H         3.44320319806776    3.73461214033058   -3.73350676391548
H         2.76974363519756    4.22136255643808   -1.37950755362171
H         4.54165190372273    3.79006372593438   -1.53503001227940
H         0.92753058154937    4.01868758086111    2.01309330648778
H         6.37855793490098    3.08130627123935    1.68057994836777
H         3.55779964300843    1.04358966806032   -4.16551471061354
H         5.59799412650573    3.08173924581972   -3.96676057050304
H         5.81153215472353    1.81238167817941   -4.91243095841106
H         5.59348333486967    1.71170788224336   -1.94738025246630
H         5.60627678975028    0.25528510645298   -3.00253480526749
H         3.75425874041522   -0.61202022927274   -2.06020881744298
