37
 energy: -49.853798401331 gnorm: 0.327088023997 xtb: 6.4.1 (79825abcba525fcdf90b791dcacef51065a7a4e7)
C         2.80982656302603   -1.47295770143792    0.17813215141486
C         2.84328495333637    0.00995476055593    0.50660200347896
C         3.06177444909691    0.89902715125463   -0.78787907801085
C         1.68408155406861    0.77159431263185   -1.84324692377403
C         1.04182470322922    2.04882203809339   -2.35944142590455
O         1.78431458382056    2.65545230173301   -3.34329628135173
C         3.11287755452223    2.97430134999264   -3.01201804575590
C         3.36925469536863    3.43051809907775   -1.61894332600910
C         3.30631726969545    2.40055181209176   -0.40015197967773
C         2.13798858718776    2.91884781928912    0.42251026565947
C         1.25157383491941    3.50757013657817    1.17597587797694
C         4.53700672462345    2.60199191889738    0.46889194054551
C         5.74349140127193    2.68920028692544    0.95553933146806
C         4.05035383904546    1.79128255633004   -3.45190141982068
N         4.96320896337016    2.42737096174139   -4.52955465991187
C         4.95181205509563    1.19549888731327   -2.39736070249453
N         4.29600580492688    0.35961338747234   -1.40312086733150
H         2.08690871135599   -1.71544872869448   -0.59806610181411
H         2.52304856876239   -2.10937082543476    1.02496077385778
H         3.81714999733484   -1.75864555437120   -0.15503110835317
H         3.70884812716284    0.24132430545367    1.13684151189980
H         1.90840545087359    0.37790244316456    0.94430788474906
H         0.99486155617505    0.21325139293199   -1.21482541247271
H         2.04690587057583    0.19150071220104   -2.74536389076281
H         0.80867384719617    2.82965785993455   -1.61140001395057
H         0.08049512266327    1.72202672728402   -2.79985263490697
H         3.37461299573236    3.78973278052756   -3.69170661613581
H         2.65110688007710    4.27855693007181   -1.42056333701941
H         4.38940261845307    3.97131246930737   -1.59754308157403
H         0.40005136538996    3.99718317786430    1.59069363178716
H         6.66461320727736    2.80067093218282    1.48527843225712
H         3.55037504646115    0.99988868225205   -4.01543164334411
H         5.70421118488246    3.03586197510355   -4.18110086201695
H         5.41909956776030    1.60947484241923   -4.94122893105842
H         5.49242664234472    2.02615096512350   -1.90553819126653
H         5.66648728864253    0.47792039914091   -2.82345934182681
H         4.14309714624611   -0.58848318112611   -1.80718135547194
