37
 energy: -49.854544310448 gnorm: 0.329280306989 xtb: 6.4.1 (79825abcba525fcdf90b791dcacef51065a7a4e7)
C         2.49359447407112   -1.18955207692463    0.52901324295730
C         2.86652057700336    0.27758442532938    0.65737944968751
C         2.98714309310015    0.94729431805319   -0.77468462505277
C         1.37472310306088    0.91239438050553   -1.42810784264913
C         1.07680478830194    2.00939733196832   -2.43711254598094
O         1.95438881490203    2.13325436517891   -3.48676372026708
C         3.21491098344744    2.70739490703216   -3.24606462831675
C         3.48876824995293    3.33586524585956   -1.84822908308441
C         3.39523341158099    2.39539774631159   -0.56097768787149
C         2.45289062780682    3.02704838845486    0.45065630717533
C         1.49947909970682    3.56859248520048    1.15618591534692
C         4.69916594118528    2.53592829737019    0.20741228156969
C         5.64450707606759    2.73826366866381    1.08229903572304
C         4.30516828402506    1.76148836051111   -3.60075696288967
N         5.44547054649422    2.59225242300241   -4.24012482731199
C         4.86072240290844    0.96283033858807   -2.44613745627781
N         3.83499946075032    0.21049356322418   -1.73960997713631
H         3.17396025330326   -1.70518762878139   -0.14561126815050
H         1.46846083366920   -1.21259353065946    0.13792232142434
H         2.41916739927745   -1.62434495265396    1.53535889631385
H         3.86188977817975    0.31234138833634    1.11341170624768
H         2.15276466480697    0.87119645234033    1.23974435156630
H         0.63434869021347    0.97122781768670   -0.63433900174440
H         1.18007713175003   -0.09008487509722   -1.91710005113620
H         0.89780064943166    2.93883162449738   -1.86462737545936
H         0.09575014114963    1.75337435701740   -2.88084195252608
H         3.33461833617931    3.55392253839803   -3.92758611060946
H         2.79708466413785    4.21736318153635   -1.71113069705633
H         4.57759058999147    3.71586995951239   -1.90889732737031
H         0.73305714696484    3.89423727469144    1.82203506568930
H         6.62751485681172    2.61112192155849    1.48110387643251
H         3.89323794696256    1.05554728637143   -4.32588451514002
H         6.23251349730137    1.95260565675053   -4.35049267998547
H         5.12888254507497    2.90163976485196   -5.16225145677014
H         5.28252761737023    1.64175714748433   -1.68110468699247
H         5.61785287690629    0.20017088699898   -2.67492476539139
H         3.19125951388205   -0.20677968827043   -2.44460285210565
