37
 energy: -49.857222362368 gnorm: 0.326189149333 xtb: 6.4.1 (79825abcba525fcdf90b791dcacef51065a7a4e7)
C         2.79432648317007   -1.34086538954809    0.43333309212691
C         3.18443953104721    0.12652372312793    0.48454128934760
C         3.01483801896054    0.85789231695693   -0.91195574005770
C         1.33690442608734    0.69754815216618   -1.34428285938031
C         0.97847200589294    1.70243615226565   -2.42686661904451
O         1.96603895533657    1.86028516186149   -3.36870369982000
C         3.01198715702023    2.77805369534609   -3.16824714483855
C         3.12639877244096    3.44956747487775   -1.80369613471325
C         3.26932293202055    2.38196165848246   -0.62469886463334
C         2.23499796734805    2.78735329287767    0.41271398646721
C         1.68100582343324    3.61329686221375    1.25588982756242
C         4.57840902456635    2.54677208609277    0.12998193073784
C         5.73423517388065    2.61921373489066    0.72902656745430
C         4.30915407011018    2.05736480685423   -3.59701129256208
N         5.27559978436613    3.24616058319156   -3.82503920083845
C         4.83599820399421    1.05762955451303   -2.59570918834712
N         3.83786754012779    0.21129848307296   -1.95950312750703
H         3.37679458107139   -1.92862187533921   -0.27318589221321
H         1.71872929516397   -1.45764661876488    0.24939062326299
H         3.03563195276236   -1.79179447970049    1.40583010204276
H         4.25853757804627    0.13984287488222    0.69917888582600
H         2.61488180486253    0.69273885878599    1.23017929567946
H         0.80367831988401    0.87407361670300   -0.41358779792187
H         1.24289786103160   -0.39818480308698   -1.61353580474552
H         0.68111830917526    2.64284102104053   -1.92601802093986
H         0.04336675978982    1.35045044787843   -2.90288764096327
H         2.85476986530939    3.59880066026789   -3.87327732472980
H         2.25702272428217    4.14472722388674   -1.61608223552968
H         4.08335651969324    4.09581109453537   -1.81850706086499
H         1.02680608484049    3.94798282640726    2.02842482565775
H         6.69959082541078    2.65215434300336    1.18566424644997
H         4.12605519872593    1.71744671861597   -4.61915603103186
H         5.67067615738318    3.55249269912205   -2.93574681408815
H         6.06823022045556    2.84756338032229   -4.33408072404507
H         5.45161455771428    1.55202768556245   -1.82064571872701
H         5.48218355374507    0.32641339347538   -3.10069141199303
H         3.15075732714918   -0.04036165799057   -2.70117675385143
