37
 energy: -49.851682142000 gnorm: 0.323169549179 xtb: 6.4.1 (79825abcba525fcdf90b791dcacef51065a7a4e7)
C         2.51589982202934   -1.29380931672528    0.43065647225171
C         2.82599599637546    0.18513474780656    0.58751976962403
C         3.03031393364655    0.90369080665766   -0.81097943187783
C         1.48097933168301    0.78207939626788   -1.59382749315313
C         1.08819690399794    2.07908576560239   -2.28212810439219
O         1.89389628605488    2.43170110931113   -3.33748245302359
C         3.21918439498706    2.83877888986637   -3.10426868640676
C         3.55956729102541    3.33444440209814   -1.74582035268532
C         3.29261536441652    2.38482953582750   -0.48994921850097
C         2.17026700927766    3.05784541206516    0.28321292134502
C         1.48532085206669    3.67873422305047    1.20265913112021
C         4.49619198761769    2.48617324747006    0.43284261133693
C         5.61704821742042    2.96734045622106    0.89348971236064
C         4.21762405793942    1.67636245629764   -3.62087008636122
N         5.34479561730366    2.33363320322064   -4.45557295825137
C         4.95153530321295    1.01339041914404   -2.48004425305937
N         4.12126605450691    0.24484409809946   -1.56500939945234
H         3.36711611769760   -1.89694980288879    0.12154772313742
H         1.66677506350671   -1.49992992292262   -0.23333406857220
H         2.28250354513753   -1.70342802578282    1.42315559032355
H         3.69735839195528    0.29627095879270    1.24197345802092
H         1.96020698568904    0.68509329287739    1.03632090808222
H         0.73030289124526    0.49428941718098   -0.86215377697011
H         1.62424728597210    0.07022483124485   -2.46256362311363
H         1.05722212000273    2.88185350621841   -1.52171086782549
H         0.05391255652884    1.94192101709263   -2.65138884010892
H         3.31002826579673    3.60409066609879   -3.87980442903127
H         2.88576591510572    4.21907142240765   -1.55168764314642
H         4.64462989780230    3.71989153971557   -1.65813937443950
H         0.83105204436156    4.16026234026375    1.89321346767517
H         6.37786934000901    3.07761371011613    1.63545038584520
H         3.68212133754170    0.98853012172595   -4.27963627075698
H         6.03500071419235    1.62003236764642   -4.69042701204638
H         4.99831113099225    2.84402352240493   -5.27148731252798
H         5.61630908772303    1.70367248291032   -1.92712212775112
H         5.68442501130058    0.29459663340319   -2.87176838540039
H         3.61505310028768   -0.47007726256562   -2.12907405210109
