37
 energy: -49.847528784922 gnorm: 0.328655786328 xtb: 6.4.1 (79825abcba525fcdf90b791dcacef51065a7a4e7)
C         2.52939558852399   -1.37888988775470    0.31214899678423
C         2.80837789714946    0.10015863934771    0.51860868661183
C         3.05459297293031    0.94875550228928   -0.79787532267999
C         1.55606544204894    0.81517136588164   -1.67231722985505
C         1.12257273690434    2.06052511110507   -2.42825334692193
O         1.95836919300200    2.65776286639143   -3.34040093574785
C         3.28583248120780    2.95037296199630   -2.98163903350184
C         3.41419743652701    3.46120279679094   -1.61691260848760
C         3.30556234821709    2.40466593976176   -0.42436395613619
C         2.16808337733555    2.88654438515556    0.46126039620463
C         1.24096888473959    3.42551116560453    1.20288631636965
C         4.66936973443050    2.47035664045928    0.24356275280097
C         5.73221415695383    2.73359318643590    0.95145008194847
C         4.20374898739777    1.79065569065325   -3.48144154343917
N         4.99728161667715    2.43105149461948   -4.64739549789851
C         5.01973688465655    1.11140761307184   -2.40793000614483
N         4.21654000988031    0.33213222126360   -1.47792790908355
H         3.22964238686028   -1.87068527379102   -0.35992805726859
H         1.49046431260688   -1.52847107156926   -0.00820903973450
H         2.49543097122731   -1.90574057609125    1.27578303793429
H         3.68531862980617    0.14870305802866    1.17324729149822
H         2.03177977990427    0.64483735995126    1.06741837621080
H         0.72944468010945    0.52291312073155   -1.02969148228071
H         1.65325160598737    0.01020084418337   -2.46259718076420
H         0.73837835632916    2.80402813932015   -1.70490849047727
H         0.25563058560242    1.77853683356693   -3.05579273876012
H         3.53259589370751    3.71389394374023   -3.72430580971206
H         2.67792649766083    4.31261309721641   -1.53166965428048
H         4.45483784177839    3.96185368117099   -1.62278975213394
H         0.58538412193344    3.82351566569162    1.94356388426283
H         6.65453446862084    2.61346302766063    1.47719581893816
H         3.54899029453229    1.04036469377789   -3.93111236072426
H         5.76914841702772    3.03390644414033   -4.36182027619324
H         5.38305181271256    1.63469050456952   -5.16048081251536
H         5.67680435777466    1.76249043412428   -1.80089632933217
H         5.70304142574799    0.43820878019744   -2.94378246916718
H         3.96957042147164   -0.51627437712770   -2.02996532230176
