37
 energy: -49.801749588352 gnorm: 0.319649554085 xtb: 6.4.1 (79825abcba525fcdf90b791dcacef51065a7a4e7)
C         2.62759031867989   -1.52762162933389    0.03989272437039
C         2.86362359346880   -0.05909763610134    0.34935492245460
C         2.98049118456015    0.90997752120975   -0.90008653342221
C         1.55615626925221    0.76198125280767   -1.88874485907253
C         0.92952829860195    2.06194530317315   -2.36591583825489
O         1.71942783951140    2.65830654938525   -3.31863502848730
C         3.05957455626615    2.96404894844443   -3.02364703709060
C         3.21947354530068    3.47063469180575   -1.57787077927866
C         3.36679737006526    2.38296513736477   -0.41790755087244
C         2.33800388380023    2.83011838297973    0.60777947564537
C         2.02960682992377    3.57527773624501    1.63231076797753
C         4.71486197137544    2.50663245735691    0.27335232511747
C         5.72844895326562    2.82507992605182    1.02917571521763
C         3.97441303776830    1.81133647074836   -3.55168836246413
N         5.04241975407541    2.23625193822982   -4.58998405387923
C         4.92376698473455    1.22414588560924   -2.53503919968667
N         4.12368172939335    0.36962716859079   -1.67077037408966
H         1.91149387590464   -1.56923522297924   -0.77825765322181
H         2.28770972120016   -2.01565064326445    0.96222176500813
H         3.58703742280163   -1.97455459374550   -0.25511233999282
H         3.79861286688754    0.19040143991870    0.86265657044779
H         2.05115589815789    0.30323557597649    0.98934125611539
H         0.80147750421815    0.23065473224124   -1.31443073987543
H         2.01242052877762    0.26861058942168   -2.79999312714073
H         0.54599712383805    2.52398404298036   -1.43690889680466
H        -0.00718481316875    1.91313922640124   -2.93629910275278
H         3.40226345244753    3.71555397469907   -3.74003724343297
H         2.24228819394424    4.00077197346658   -1.38210556379094
H         4.19648024874265    4.07228936059474   -1.44715018037979
H         1.41152939417446    3.99681480271656    2.39197457708468
H         6.28682674812147    2.96210710403918    1.92970466735856
H         3.32195965097205    1.02492942208947   -3.93862233831726
H         5.10567485806823    3.23579245099094   -4.39586241658169
H         5.86978676140719    1.66641155245934   -4.39759959342945
H         5.49006736824168    2.06654969355946   -2.09481642782720
H         5.76149805841226    0.67534483737232   -2.98699460039349
H         4.70556759381618   -0.18751255483321   -1.01006074895611
