37
 energy: -49.852182217165 gnorm: 0.315444756934 xtb: 6.4.1 (79825abcba525fcdf90b791dcacef51065a7a4e7)
C         2.56185441681622   -1.41981469228846    0.33730475681995
C         2.96455628258135    0.03778882530365    0.48312817757692
C         2.98535001623982    0.85995586934067   -0.87240773778854
C         1.34555145573565    0.78771327290305   -1.45026569516688
C         0.99193241955383    1.82251640363542   -2.50591589598253
O         1.96944133544256    2.06059060866825   -3.44136170845348
C         3.10857002429216    2.83272217382728   -3.15380609946999
C         3.32292373103143    3.37546998924398   -1.72516545411688
C         3.30847443115236    2.31678560284558   -0.52966446639620
C         2.22378070091712    2.77907579073485    0.42956602507329
C         1.80644063475971    3.40990609101813    1.49159990806371
C         4.59730945930378    2.50731413263953    0.25328840107536
C         5.54738411484206    3.17287041236137    0.84862799448395
C         4.35720979059932    2.01770959643139   -3.56102199570054
N         5.42411814989323    3.03245519754505   -4.04190385350809
C         4.87922298352136    1.02111310159045   -2.55407667806779
N         3.84188411900639    0.23354690330647   -1.90525711947540
H         1.50177097141688   -1.58785002698033    0.15874646981758
H         2.81249760689473   -2.02566238231864    1.21736643978621
H         3.16861353628476   -1.82204118093767   -0.48572199303454
H         3.99670467423768    0.02771088087049    0.84987256354573
H         2.36301180591368    0.50327166025706    1.27207785437056
H         0.63890582984895    0.72265685329403   -0.62679484642148
H         1.35643392263769   -0.27187999917654   -1.84915009131109
H         0.57751961199757    2.78028874296233   -2.13908619841134
H         0.14098379877497    1.36405223800795   -3.04499735930936
H         3.14259924062660    3.72625543797268   -3.78297279443532
H         2.58364195507051    4.19761812655724   -1.49757885454067
H         4.39691814129386    3.79515540761881   -1.78855681611610
H         1.04411460342944    3.82341092086705    2.11182168155983
H         6.35423704072707    3.42397958545056    1.50242243430949
H         4.06185993873771    1.51669434177702   -4.48600931957382
H         5.80325425669154    3.51074964758040   -3.22443465747384
H         6.17115319768700    2.41930372671200   -4.37694104825837
H         5.53247360782904    1.50308719696471   -1.80234468996057
H         5.45614081517201    0.28662537595800   -3.13281083368859
H         3.26615675652354   -0.06507648911413   -2.72066812800924
