37
 energy: -49.853942887122 gnorm: 0.330369650402 xtb: 6.4.1 (79825abcba525fcdf90b791dcacef51065a7a4e7)
C         2.46629178606845   -1.20451138277306    0.60575993866282
C         2.95780452924070    0.23293868712561    0.61968104959216
C         2.91967434930380    0.93134103381520   -0.80322052726971
C         1.30175100296100    0.86921320686563   -1.44082723179583
C         1.08172820811135    2.06521291459233   -2.35265833347546
O         1.98082478304128    2.20807866922821   -3.38148125370896
C         3.27300649528738    2.74401037841116   -3.24172010860401
C         3.57646966592163    3.37289096727601   -1.86504768919348
C         3.28116685091053    2.40865532819664   -0.62678684092832
C         2.34348247833540    3.08440469804607    0.36038421485802
C         1.32198031052671    3.51734737509097    1.04531451861834
C         4.53715678896319    2.40539948091349    0.22930348951146
C         5.64910206261462    2.61943398900918    0.87568052536980
C         4.34733912364358    1.76804486716373   -3.59610647403815
N         5.50835301004229    2.58768066813652   -4.21213679205607
C         4.86265791599246    0.98030803153521   -2.41561571166200
N         3.83910339520742    0.21676882115400   -1.71801749380168
H         3.12078111725095   -1.90162851041892    0.08656125552676
H         1.40903680229239   -1.25049273514907    0.31510617096527
H         2.37751675931180   -1.58002069791513    1.63455902358233
H         4.02860205091853    0.16843337750289    0.84141297048021
H         2.48646872924798    0.93046580013788    1.32130068300160
H         0.63095362569445    0.86200181334474   -0.58545392629310
H         1.18147043545956   -0.10548344569982   -2.00426676942488
H         0.99659951098097    2.96372099951977   -1.71307551431163
H         0.11632322826704    1.98526582969341   -2.88792785356459
H         3.33563162137996    3.53565845793298   -3.99323978470118
H         2.90099393130095    4.26381906595899   -1.70935433337053
H         4.65240258048942    3.78423793851935   -1.78270486373486
H         0.82872534099304    3.96800892407697    1.87622124765685
H         6.51902212161922    2.67335021281923    1.49361799446270
H         3.97492037731862    1.07143582201266   -4.35101672391722
H         6.22000194619976    1.90398891470791   -4.47076206702682
H         5.21797689823867    3.09578208489765   -5.05105316135101
H         5.35080647300548    1.70934359304630   -1.74155746107764
H         5.66622997763925    0.31583875520421   -2.76201454118694
H         3.26683365424128   -0.36052207814011   -2.36976560504362
