37
 energy: -49.852982647577 gnorm: 0.322346578271 xtb: 6.4.1 (79825abcba525fcdf90b791dcacef51065a7a4e7)
C         2.66324842549516   -1.34453386821114    0.50283434482729
C         3.01548063674869    0.13324798867771    0.49123564605549
C         2.95311839436756    0.87401771242129   -0.90920707406675
C         1.30276787139179    0.74691187366270   -1.44611059197342
C         0.97444287599758    1.79501861773120   -2.49679429273947
O         2.01427002949733    1.90964299713020   -3.38723385740835
C         3.03167259573579    2.85334934295539   -3.16184551918115
C         3.24641178264383    3.39891589995699   -1.75947174715916
C         3.25541592586439    2.34072737539602   -0.56347843499362
C         2.20663434353344    2.86132786684917    0.40576256572537
C         1.56136494960614    3.27896542905782    1.45896806825586
C         4.54488891616234    2.53977411605200    0.21629834081779
C         5.81582934624959    2.73827914056622    0.42923600033319
C         4.31683604850732    2.06105838063621   -3.58995005870134
N         5.44901861582329    3.05442346456679   -3.95138869465626
C         4.86905266493702    1.15139157945982   -2.51887380601036
N         3.90078255539291    0.27530375002468   -1.87682835123207
H         1.78394496257353   -1.58161156574931   -0.09257764038060
H         2.51972468525087   -1.67960540993278    1.53797201487014
H         3.49472954401831   -1.98054099328030    0.16899322316981
H         4.07094472087490    0.25617472731550    0.75735196643278
H         2.40327076232917    0.68217084577809    1.21570399323983
H         0.73842791818024    0.89260253235214   -0.52851631003847
H         1.25255882737294   -0.31746169255167   -1.82893307719265
H         0.66037159744398    2.74336789005598   -2.02179666563277
H         0.10309504038375    1.50684611810966   -3.11535821850435
H         3.02223731987024    3.71476767642960   -3.83510612405498
H         2.53629806879619    4.25293096588929   -1.55783459364491
H         4.28238578461390    3.90915317485921   -1.76531106945400
H         0.77144170718203    3.52059924791481    2.13308719878315
H         6.73026963247501    3.08369558460065    0.86051440024185
H         4.08184742168021    1.50807690254265   -4.50255139544618
H         5.63784683940269    3.56770874002072   -3.09019894619227
H         6.27104918218270    2.50398802029948   -4.21129748700651
H         5.31987443602351    1.73826959061359   -1.69639564860978
H         5.55793209634923    0.46091605132315   -3.02476737228627
H         3.38883638946727   -0.29480096056986   -2.58282040591151
