37
 energy: -49.853063125772 gnorm: 0.330412761081 xtb: 6.4.1 (79825abcba525fcdf90b791dcacef51065a7a4e7)
C         2.52718956941725   -1.27801969699138    0.42568488756207
C         3.08937097633205    0.13004877015970    0.52231063526810
C         2.94968481926881    0.97083954973948   -0.81463636763724
C         1.27603550957406    1.02987093780501   -1.28738515373117
C         1.02222685398178    2.00409451458276   -2.42612607161813
O         2.00366566798774    2.06861127133908   -3.38522842207059
C         3.24021430476480    2.69835144084165   -3.15969718278754
C         3.50113513300701    3.28485076490726   -1.77826936395127
C         3.35660717349005    2.41343516133127   -0.44785945742743
C         2.27534970330614    3.07753615688738    0.38894873273995
C         1.35342922504781    3.70341248118195    1.06598414047755
C         4.64499500040109    2.56341683524507    0.34458879512561
C         5.75264582686304    2.85948347405789    0.96546754943574
C         4.31144205186591    1.76302007523194   -3.61073496432122
N         5.58242555569481    2.56559410228984   -3.98453344944889
C         4.77167383337315    0.81373049695832   -2.53060662751949
N         3.68913359432770    0.16113244053527   -1.80982811501595
H         3.07354431530401   -1.79034043908918   -0.36356779425725
H         1.45381351382266   -1.36860456508094    0.21582726167263
H         2.77186459871367   -1.78800335964295    1.36768626875174
H         4.16524606879673    0.09379941165976    0.72507177951099
H         2.59606199949569    0.62057101750853    1.36907258411772
H         0.70153165070816    1.29107351771142   -0.40228451211749
H         1.19260740099875   -0.04864346045510   -1.62176747314012
H         0.81847843924617    3.01787340426264   -2.03322811703019
H         0.11836815010829    1.65059601038587   -2.95809413612230
H         3.15495543517395    3.52836816006710   -3.86624766418386
H         2.87086191613357    4.20646233152772   -1.61199081964783
H         4.59474536806291    3.65195570838279   -1.83183165018388
H         0.47877320186606    4.25498988496608    1.32587153442117
H         6.60618928932670    3.05515567030160    1.57758724401144
H         4.05072051547135    1.23196201710013   -4.52934858775076
H         6.23951863695039    2.00843808873036   -4.53095042760741
H         5.27797029338770    3.26419364898955   -4.66683226763924
H         5.34772031911332    1.39807878175073   -1.78841802802411
H         5.45220441402711    0.05576397431785   -2.94243730382328
H         3.03295485037311   -0.18926293108131   -2.53933862140096
