37
 energy: -49.855797703932 gnorm: 0.324816695429 xtb: 6.4.1 (79825abcba525fcdf90b791dcacef51065a7a4e7)
C         2.61242104187840   -1.25866695974451    0.37553612967431
C         2.93713119021995    0.21423707217985    0.55763036312772
C         2.92314630577368    0.95850082434873   -0.84227839684127
C         1.28262970141089    0.89553763191778   -1.41918310171464
C         1.06918920343929    1.98540404434558   -2.45691892845325
O         2.02986814434714    1.98427207777181   -3.43893551043900
C         3.20593193378116    2.71434769912688   -3.19326682630462
C         3.41457826142030    3.35502130145556   -1.84341724005408
C         3.30431214728837    2.39303135641685   -0.57351143538071
C         2.29294712796135    2.86934544871365    0.45637278593264
C         1.68641867048367    3.56299675008305    1.37887300536026
C         4.57724325240801    2.52935952374805    0.24592314180233
C         5.50621981433378    2.95210431779191    1.05729585982645
C         4.36181301000065    1.76866791375920   -3.64584757487673
N         5.56174440916506    2.66781204539153   -4.03437545190248
C         4.80689947997669    0.94001837572037   -2.46479753470366
N         3.74955910256753    0.19146190649263   -1.80223146622005
H         3.19819948227377   -1.57655907689308   -0.48452437256360
H         1.55987515579332   -1.31293112112701    0.06962019896692
H         2.79703267769869   -1.89251838881023    1.25386791099238
H         3.94733820598232    0.37200341281416    0.95072688974388
H         2.22287426744895    0.74945331173640    1.19351733811528
H         0.63351334267099    1.02758905138530   -0.55726953714642
H         1.05046909425639   -0.16362220557891   -1.74513859433237
H         0.99296214969746    2.93079626679087   -1.88766253772991
H         0.10882093576172    1.86144400596333   -2.99286525970544
H         3.16779307200601    3.57792388543994   -3.86273826665959
H         2.66926249708834    4.18540284527040   -1.67244453906485
H         4.43374940852279    3.89800208412476   -1.83445373491564
H         0.95948476921248    3.82397394160660    2.11389699584679
H         6.44111845427835    3.27699330422773    1.45969650839646
H         3.95971353791924    1.19542071427768   -4.48462825694732
H         6.41428591357381    2.13137373289327   -4.19615485429613
H         5.35663217866437    3.07260495994604   -4.95107479188309
H         5.37495152742755    1.55653712096783   -1.74274636130342
H         5.51804742961834    0.19147342725011   -2.84054835693741
H         3.22162948184405   -0.42481746482157   -2.45570150487450
