37
 energy: -49.852971447101 gnorm: 0.319087941011 xtb: 6.4.1 (79825abcba525fcdf90b791dcacef51065a7a4e7)
C         2.78555969556571   -1.37342669354506    0.29764899006043
C         3.03194837958526    0.10684315884550    0.53457737153084
C         2.99081029741536    0.90084770938311   -0.83718539139439
C         1.33609518786933    0.82626944334283   -1.37050904497218
C         0.95925368748772    1.87158840382162   -2.40760115440396
O         1.88702380792250    1.99793316237404   -3.41285807760762
C         3.07445187641158    2.72113133924868   -3.20431903770410
C         3.27044506362398    3.30465375781629   -1.83682222444655
C         3.29760660160071    2.36911987243431   -0.54288149019494
C         2.35493583108908    2.98315077145765    0.47924066308879
C         1.63523552525988    3.67803540962654    1.31542387398319
C         4.62336565592775    2.42652272952976    0.19838759740035
C         5.51369086632847    2.74822345750121    1.09497331908592
C         4.26721220039536    1.87885998439046   -3.68937443957335
N         5.28947859573890    2.89911149509010   -4.24911341015142
C         4.88774952258640    1.13050027471685   -2.53415480825480
N         3.97016688814367    0.29858795402764   -1.77043807027557
H         3.38287867718013   -1.67564016563173   -0.56012306494734
H         1.75251419063236   -1.47781900695982   -0.05773985022451
H         3.02591149510947   -1.93782379652496    1.20924250191755
H         4.00144480101120    0.27539618146123    1.01582562296838
H         2.23381074331972    0.55402922058209    1.13787875514829
H         0.74135890560997    0.91408666121930   -0.46482614900213
H         1.21350427022825   -0.17586935960596   -1.88300721910028
H         0.76348841014258    2.84313187301441   -1.91626715403043
H         0.01395515707884    1.58683967674321   -2.90784171795129
H         3.04711456152601    3.49119039890816   -3.97999430973375
H         2.44884698649817    4.05576002105460   -1.64953436024266
H         4.22475311723297    3.95436553134515   -1.86491234028895
H         1.10001514559466    3.95508191408624    2.19496161237231
H         6.44180823620968    2.69449302995779    1.62149569348208
H         3.96842948336656    1.32416760146604   -4.58206398138042
H         5.56312979338492    3.56419948422979   -3.52555370728437
H         6.11243541250035    2.30861421696250   -4.39166534089832
H         5.47564093007502    1.86358631570925   -1.95011291055660
H         5.66987138726527    0.39387398834862   -2.76416943715927
H         3.45652245321247   -0.34723606340520   -2.40653065179187
