37
 energy: -49.857212587203 gnorm: 0.316547498651 xtb: 6.4.1 (79825abcba525fcdf90b791dcacef51065a7a4e7)
C         2.67157747427668   -1.42284920151060    0.31042990036310
C         2.81837507622969    0.08051861714727    0.47283970031406
C         2.97492226380802    0.89461180165162   -0.87868311137707
C         1.43028733694144    0.78823534492136   -1.67295329377811
C         1.03726920074630    2.04063861799324   -2.43929791252820
O         1.89259359987285    2.48967014491917   -3.41605414404107
C         3.19424748678841    2.88393615349798   -3.06004708642500
C         3.36151264426544    3.37976644358445   -1.64541905286738
C         3.27918725918108    2.33229067954742   -0.44281309800922
C         2.31552888845788    2.82455822602310    0.62462825616168
C         1.65116106391411    3.71160187821114    1.31150850886350
C         4.60979291506390    2.42821794877064    0.28567746839927
C         5.52293978690574    2.79169884069651    1.14246258134619
C         4.20051277191683    1.84980938149230   -3.56516761663525
N         5.23890535877363    2.55899154275163   -4.46962930238510
C         4.91441742887216    1.07835872961394   -2.48126482935900
N         4.04827370435783    0.24275670357480   -1.66342403886018
H         3.57709497147219   -1.76607290423462   -0.18568641560703
H         1.83599085407665   -1.65928916554896   -0.36059404975777
H         2.62280390927925   -1.95740721879351    1.26917109259874
H         3.71881893474173    0.24670368338846    1.07410228306424
H         1.91177274026044    0.49859460407622    0.92478692419423
H         0.63782174909464    0.55677041806220   -0.96577092924301
H         1.53231672929641   -0.15324281709329   -2.29357714543553
H         0.81517664352972    2.81855553263544   -1.68487758804890
H         0.14563928223272    1.83322596491933   -3.06130100751252
H         3.36938342902969    3.69292154190382   -3.77438625996434
H         2.59729858955600    4.18288623474529   -1.43273092081249
H         4.42425791479669    3.82993043377017   -1.60613575526346
H         1.06650349838703    4.30710203838201    1.97510277236712
H         6.28984900575466    3.17768987659967    1.77836803197331
H         3.70836099985794    1.18190405041592   -4.27617990322778
H         6.02365947644077    2.86568129597113   -3.89441801516060
H         5.61908039010083    1.85785164288235   -5.11004775702613
H         5.45027416270781    1.80300990219283   -1.83949023685495
H         5.69533670584319    0.46222656461110   -2.94794016029696
H         3.61731369517790   -0.46245658578872   -2.29783772582052
