37
 energy: -49.854761445829 gnorm: 0.325299533092 xtb: 6.4.1 (79825abcba525fcdf90b791dcacef51065a7a4e7)
C         2.73490782223818   -1.28244459444208    0.42673365029152
C         3.02171361974626    0.20049173210628    0.59008469405116
C         2.97335928562476    0.98252340770325   -0.78830456983636
C         1.30757973079392    1.00220553457076   -1.29116560426285
C         1.10563781947827    2.03101205912535   -2.39163727075256
O         2.01431912018244    2.03893602144550   -3.42192722059554
C         3.21290166943714    2.73850397900569   -3.19721830339722
C         3.43179243872104    3.39013674759591   -1.81656585188425
C         3.26003520504383    2.45770165234317   -0.53153345556477
C         2.20347138136107    3.02037577377742    0.40519838817603
C         1.19781532115517    3.60965464526622    0.98952861389047
C         4.58753486457040    2.53802235142080    0.20447279440518
C         5.60685972834817    2.40459719212396    1.00647704064747
C         4.38186520062864    1.83231624878841   -3.60082634156151
N         5.58866358057480    2.67240161853058   -4.08780035020926
C         4.83333161523621    0.94750663145456   -2.46375499919145
N         3.73824602658328    0.24080796260048   -1.81671265015851
H         3.41704006045566   -1.76512119344740   -0.27012699377589
H         1.67905210890059   -1.51167268657229    0.23436631267126
H         2.98498345319055   -1.68457611370081    1.41823162220937
H         4.03333398456252    0.32830357141576    0.99036170239483
H         2.34757347106694    0.67258218952976    1.31371255402777
H         0.63625640365701    1.23611041115222   -0.46879213889998
H         1.04106888725915   -0.04022924957145   -1.64368054460943
H         1.07281613928848    3.04960072016859   -1.96148644454568
H         0.09942797530831    1.93230801996059   -2.84187169061746
H         3.17101874825681    3.53629742331748   -3.94366445210792
H         2.85230705974884    4.34246495687524   -1.63900335545370
H         4.55341818295510    3.66501795879411   -1.81278189407118
H         0.49855247808189    3.77323822677520    1.77761119649266
H         6.49638552908550    2.31013382500776    1.59071595556350
H         4.00712712617473    1.28565067863970   -4.46949054582186
H         6.29161823294362    1.98765971079512   -4.36663530390551
H         5.32693475115057    3.26330269403364   -4.88064330408870
H         5.38454084313528    1.63168133363700   -1.79128957044298
H         5.46089129257075    0.18230492468755   -2.94111736253327
H         3.04750711205727   -0.10010090890923   -2.51827799471014
