37
 energy: -49.851259552268 gnorm: 0.325748713365 xtb: 6.4.1 (79825abcba525fcdf90b791dcacef51065a7a4e7)
C         2.61089461805168   -1.37537004187125    0.23445950159397
C         2.96628585197251    0.07482857887675    0.51492751890706
C         2.94717687228499    0.89247277244520   -0.84336606701121
C         1.33427486647130    0.81348433413734   -1.49173793363501
C         1.01742636329169    1.89258008131381   -2.51419609100209
O         1.97297871582331    2.06693027744168   -3.48568133884077
C         3.13314321099696    2.80241241873764   -3.18639232128878
C         3.28096723300548    3.33382588050269   -1.76207485291905
C         3.23352755778289    2.34386959195041   -0.50988473766257
C         2.25234095659131    2.82290954877559    0.54756005025133
C         1.82208681136096    3.49263918180316    1.58021641754586
C         4.51144924740364    2.56226403904197    0.28360880948557
C         5.58629955942351    2.89832102611860    0.94072285960704
C         4.34216714651406    1.93858175310898   -3.58892116288625
N         5.33085967902535    2.93740793685403   -4.24013754331924
C         4.87575785276656    1.10661865598067   -2.44753622205135
N         3.88226248465608    0.26141502119858   -1.80263543462615
H         3.36344714417913   -1.85248330395297   -0.38997902815406
H         1.63256181336282   -1.57679993484144   -0.22015343228759
H         2.67649123033961   -1.90176167212740    1.19670933626566
H         3.97432004054695    0.11860768345326    0.94140586162235
H         2.28267758366450    0.51248727473708    1.25120614902683
H         0.81303396161147    0.86371249891896   -0.53912590984112
H         1.23799985755708   -0.15465396636072   -2.07087906132225
H         0.63989403546326    2.81316164990959   -2.03084448676894
H         0.13681273108581    1.48728199712056   -3.04820439089986
H         3.17983304830754    3.69627180458495   -3.81428233491580
H         2.60048932140356    4.21660225318128   -1.58342309173576
H         4.32026019205531    3.83664100625120   -1.78787025612429
H         1.15098461473860    3.87146956377686    2.31704182498188
H         6.49287869193009    3.05833230542163    1.48296381612541
H         3.96829722110846    1.31908086084032   -4.40763313489160
H         5.93780394696748    3.23624602437793   -3.47654072041810
H         5.92377759549775    2.58420607430116   -4.99509634967546
H         5.48241571432663    1.63307204442904   -1.68664893893675
H         5.64089209156555    0.43675877173632   -2.86358544825383
H         3.34566027385915   -0.39514496405034   -2.40804446368059
