37
 energy: -49.854767046536 gnorm: 0.310302766096 xtb: 6.4.1 (79825abcba525fcdf90b791dcacef51065a7a4e7)
C         2.51637801631030   -1.29909070836603    0.36121225414798
C         3.04839887281930    0.10805063236864    0.57322247321540
C         2.95157824121496    0.84572366203069   -0.82689641910106
C         1.32694620742883    0.80824898520368   -1.44918617049202
C         1.04650161700248    1.98151532375321   -2.37387975202874
O         1.94267930785482    2.08858057348758   -3.40957490740433
C         3.16225665935043    2.74151656158575   -3.15898514056278
C         3.49235580726187    3.30816361056456   -1.76952139149659
C         3.32625779022029    2.34292182447714   -0.50818725568331
C         2.28996679923107    3.02068148503640    0.37336741904473
C         1.56839293232052    3.75931542038196    1.16947462666888
C         4.62172582100712    2.39897698190272    0.28492843323267
C         5.49599229946089    3.05586766867177    0.99499115812333
C         4.31812324548284    1.83784598436307   -3.59713081056048
N         5.50751643814333    2.75440480729898   -3.97727972971604
C         4.82394552758458    0.92773621894484   -2.50374832767692
N         3.80163973223346    0.15009796327878   -1.82003138291386
H         3.00630558708714   -1.69956290104013   -0.52393679837032
H         1.46230925400240   -1.33450290102987    0.05778677874818
H         2.62031989359087   -1.94702716661866    1.24251256646952
H         4.09435353533430    0.12831175901775    0.89803263758425
H         2.40901081496215    0.65135914953666    1.27818373911028
H         0.70323552504944    0.92970063395262   -0.56718894880608
H         1.20424135531216   -0.24431820309779   -1.84794791066757
H         0.99345495076187    2.89060515936459   -1.74588964195537
H         0.09590403995950    1.87281444140606   -2.93017116429292
H         3.21120298012650    3.56652343380170   -3.87479121086008
H         2.92736956328879    4.26854924286241   -1.58866026165504
H         4.59026224251903    3.65153780051239   -1.87107893792819
H         0.95585111198384    4.35291107709959    1.80919249834988
H         6.33749499101561    3.04512018190573    1.65322544124116
H         3.90969200656600    1.19189724068725   -4.37801717451304
H         6.29268709045614    2.11585785931767   -4.10585070959879
H         5.35179907288512    3.12938349150843   -4.91611363368549
H         5.42022936343607    1.50549734473559   -1.77246585318485
H         5.54033715945214    0.23655771295910   -2.96882351431688
H         3.23411731588115   -0.27885784198232   -2.58124637451959
