37
 energy: -49.854690907840 gnorm: 0.322643951537 xtb: 6.4.1 (79825abcba525fcdf90b791dcacef51065a7a4e7)
C         2.47240292041859   -1.26926827558100    0.59192857934046
C         3.04345819752661    0.13854243733483    0.58944974232126
C         3.01286221250228    0.89181795315791   -0.80536513033287
C         1.38808029281820    0.83129503967525   -1.42544482012622
C         1.06111055014425    1.99104445242893   -2.35190765056511
O         1.89307683889018    2.16442816555229   -3.43127415854712
C         3.14228972237952    2.76335435412352   -3.19201667288673
C         3.47663580186540    3.33033674131956   -1.87706802747100
C         3.32195668809863    2.41244055374385   -0.57946061634583
C         2.23561794169629    2.99464664824057    0.31008987225888
C         1.53039079306512    3.82911449365144    1.02167519120847
C         4.57143148022525    2.60188753524509    0.26513079024214
C         5.67551352688048    2.67923527829070    0.95437415614100
C         4.29861207137361    1.77189624463141   -3.65922221906960
N         5.47924972746186    2.70776127702977   -4.01908442817888
C         4.81683358680104    0.93725895209777   -2.51271959329151
N         3.90941192200304    0.13363952961477   -1.70768480987755
H         3.12212664020924   -1.95050680229670    0.04633806939448
H         1.44732670621052   -1.22173782033531    0.20290209043146
H         2.46105420371216   -1.65042284797493    1.62241788392225
H         4.09692332666794    0.09125831693087    0.88594383300447
H         2.52119033225712    0.72518209640258    1.35368910736516
H         0.78459801924458    0.91785606934270   -0.52544429180171
H         1.17134395285826   -0.21179925631270   -1.80877853982571
H         0.87555233462840    2.93217811435074   -1.80103068117690
H         0.09672779743670    1.77973622450780   -2.85213410903403
H         3.15311208364285    3.59416632967300   -3.90268167805852
H         2.93348888078186    4.30238538293912   -1.69166676417049
H         4.57726202302955    3.65552508318924   -2.00549222452130
H         0.59871038010469    4.14294385735248    1.43433125904651
H         6.52487420298773    2.67850538778953    1.60252579523065
H         3.88727972854956    1.12834498902921   -4.44056520070148
H         6.32084542750261    2.19062559097092   -4.27413935319280
H         5.25247190995122    3.18963676284387   -4.89237352598878
H         5.33693036624616    1.61519379060263   -1.80983974322413
H         5.58978503477489    0.28501169068061   -2.94209029050300
H         3.35329006019705   -0.44270566926068   -2.37408388395496
