37
 energy: -49.853209238848 gnorm: 0.325119811919 xtb: 6.4.1 (79825abcba525fcdf90b791dcacef51065a7a4e7)
C         2.56586966336314   -1.25720764393896    0.37427861238917
C         2.96299811407164    0.19818819799205    0.55359178677248
C         2.88145266978199    1.02228866355884   -0.79847234234170
C         1.20624485428504    1.00821063091311   -1.26917258160923
C         0.97975480761702    1.93730851712484   -2.45058726996002
O         1.98376699698516    1.88835856724234   -3.38697677341464
C         3.15228738150318    2.65183049676910   -3.21916653570765
C         3.35815150472671    3.38819623075760   -1.86845131764196
C         3.26666318640971    2.47134715456600   -0.56412710276844
C         2.31186479414127    3.11841080635363    0.42585495783832
C         1.51341812834352    3.87843223636370    1.12219241479193
C         4.60604746725264    2.47182890710571    0.15452545286257
C         5.76651917978456    2.72356199078226    0.69301604052677
C         4.38233517494673    1.82829359156238   -3.56446151511606
N         5.68144205686141    2.64587596491865   -3.77213870580148
C         4.76564398741805    0.87333042447731   -2.45958101304095
N         3.71025977305741    0.20473842744380   -1.71362648490528
H         3.11492856932742   -1.71890385209152   -0.44380865438160
H         1.51162271447180   -1.43274140144187    0.12501315364562
H         2.71250621343896   -1.80385794417642    1.31607847420999
H         4.03306006561556    0.22051153399603    0.78683500900231
H         2.32513353308047    0.67858750540172    1.30413619021848
H         0.69462190565935    1.21655467521649   -0.33294646841936
H         1.11914446584093   -0.07920217752029   -1.57234249843585
H         0.81057824247719    2.97924837486190   -2.11987519118871
H         0.08487563104593    1.63155239306578   -3.02557963740573
H         3.09620376480873    3.46472600091432   -3.94818364049756
H         2.61320799284565    4.22796049847942   -1.74964096870930
H         4.43717943478451    3.75117068658436   -2.06227229465014
H         1.10632465209447    4.38174688040557    1.96939459426830
H         6.68516174271711    2.51722397229920    1.19802600947582
H         4.18474970439260    1.32002297883600   -4.51128268928595
H         6.49707904063333    2.03328841011043   -3.75669677277079
H         5.69096489519021    3.05043154658813   -4.71155879691541
H         5.39924174564696    1.42815482705623   -1.74204345168604
H         5.41429581614893    0.12613860619978   -2.93727842602092
H         3.18533522632686   -0.40161683134449   -2.37869833047065
