37
 energy: -49.847141640807 gnorm: 0.314075992432 xtb: 6.4.1 (79825abcba525fcdf90b791dcacef51065a7a4e7)
C         2.81223271649960   -1.40721433096491    0.28041652384410
C         3.02482916115535    0.08121024191819    0.49821532951491
C         3.03628200846715    0.86831629175595   -0.87808461745032
C         1.53546250762526    0.64837545145814   -1.73087121621480
C         1.04099276969562    1.94581692995392   -2.34926152700938
O         1.86381873077822    2.46579041022442   -3.31871853645792
C         3.14523564734753    2.98499023073992   -3.06397987799449
C         3.38938338482688    3.46732885113382   -1.60791820992244
C         3.22120609743510    2.35604729285932   -0.47345193120706
C         2.09976515318950    2.84446048758835    0.42888867358574
C         1.36644835830010    3.61149731610227    1.18647467112286
C         4.39537092084978    2.52195817448782    0.47745423971700
C         5.58957536912243    2.85072468897788    0.88466992551944
C         4.16331813960500    1.92298370214811   -3.48673539689266
N         5.20702939215286    2.62648693733988   -4.38950860356611
C         4.93017458367035    1.09997783273619   -2.47964366674397
N         4.09249812754859    0.21491723995982   -1.68449263826631
H         1.77441345186129   -1.59109557425377    0.01020418311434
H         3.03975230722330   -1.96947141102171    1.19501141222013
H         3.54632469481703   -1.74300247624577   -0.46501697220750
H         4.05302765905297    0.24415022327970    0.83908440024681
H         2.24514492239312    0.54650818850043    1.11186174908430
H         0.86355535135361    0.31583544506997   -0.94369745235231
H         1.61735417628758   -0.19065384440631   -2.48670763163523
H         0.96497143074235    2.63256575128286   -1.48541740424444
H         0.01347269847787    1.87134663461865   -2.75369749050205
H         3.31808935866351    3.83565979933766   -3.72873042614939
H         2.68328033947676    4.29857644187397   -1.31687406306155
H         4.46824501904027    3.87873673791943   -1.58743825755337
H         0.49115986404179    4.18180709073722    1.39959213630284
H         6.38251571646635    2.81549290446406    1.59987544277539
H         3.67020058457546    1.22646640515103   -4.16904625100215
H         5.91907056695467    3.02740086881686   -3.77874593295048
H         5.69113481264675    1.82987364252533   -4.81059673099516
H         5.50391756672144    1.69261961731482   -1.74226242661311
H         5.57607009931898    0.40716231086762   -3.03647870692564
H         3.60389352306888   -0.44234213875792   -2.32854907120180
