37
 energy: -49.855790792492 gnorm: 0.325239918543 xtb: 6.4.1 (79825abcba525fcdf90b791dcacef51065a7a4e7)
C         2.62349715739443   -1.27282212590724    0.55235737723066
C         2.83080754146480    0.23208711652236    0.53469798177837
C         2.83286165934193    1.01113239823736   -0.84622666339659
C         1.19329762367317    1.04573777090984   -1.42821495572406
C         0.97413058837963    2.03356261692183   -2.56242356680782
O         2.00619756587371    1.96126912310777   -3.46623398989110
C         3.19778690284005    2.67048329018182   -3.23467477644386
C         3.33793376653118    3.42338785987313   -1.86526287689548
C         3.23557798172577    2.45369274479750   -0.60056579584920
C         2.26891441625753    3.04231530841220    0.41406756973996
C         1.65717442850223    3.57150947391578    1.43669324417153
C         4.57370457789558    2.54006189887995    0.11523417462654
C         5.78035528370761    2.69819554271623    0.58323430011353
C         4.44644114514131    1.76262259768257   -3.53556715526403
N         5.61354759162122    2.66444943301728   -4.00866370464347
C         4.85281628593487    0.91852682227792   -2.35150516915975
N         3.77322557341081    0.21899112316626   -1.67148093758202
H         3.30271100913316   -1.83615383312531   -0.08421294734466
H         1.58696212083908   -1.56025975804109    0.33474137642394
H         2.71623349925233   -1.64072019471829    1.58355415289799
H         3.82923931465596    0.39376240651910    0.95532656741825
H         2.09520545791065    0.66835490704396    1.21992174770642
H         0.50901060664961    1.27119745846206   -0.61421014924203
H         0.91216696627033   -0.00097645473080   -1.75581223190901
H         0.81240528614009    3.06107389243076   -2.18599912328771
H         0.03551673478974    1.77370171209795   -3.08814984032168
H         3.30110610609064    3.44301455895852   -4.00144135943876
H         2.59691347369723    4.27300944039404   -1.80787945058945
H         4.38082007311165    3.91933815468277   -1.87156870342247
H         1.15209040038613    4.01770455414317    2.26289075987777
H         6.73809379981619    2.61523401564799    1.04946271537354
H         4.15318894011172    1.19386415804305   -4.42121175179654
H         6.48272280176579    2.14860628382155   -3.87007815563429
H         5.57431835749509    2.77660972307168   -5.02461013395001
H         5.36067521789857    1.51021359972308   -1.56657048939735
H         5.56647099170661    0.13070160330457   -2.62947641200908
H         3.27952755952898   -0.42278425590723   -2.32716353859672
