37
 energy: -49.850990450062 gnorm: 0.327918787377 xtb: 6.4.1 (79825abcba525fcdf90b791dcacef51065a7a4e7)
C         2.56138567796873   -1.21772800640976    0.40197683432024
C         2.98370877634018    0.23093385466212    0.57822464383623
C         2.98794889892224    0.97628560548888   -0.82116859426552
C         1.31143239374197    0.93680305435097   -1.28572393779627
C         1.02805995402160    2.02951286907721   -2.30353856253069
O         1.94914620719644    2.06060370930274   -3.32231005308014
C         3.21905416140979    2.64918328875121   -3.19041077889233
C         3.52623193707939    3.37278448249036   -1.83078020353488
C         3.32422188969347    2.44435967619718   -0.54724470544187
C         2.28454099811766    3.07537099402454    0.36450314954449
C         1.40667211097601    3.85765642362332    0.92789583681751
C         4.49933031837204    2.60673059093223    0.40310671747124
C         5.68242734707708    2.52040583235718    0.94427747812962
C         4.33767820780459    1.71692301052119   -3.60471244385446
N         5.50074413770817    2.64201524210474   -4.04144056193662
C         4.88519881936765    0.79619777621101   -2.54069766819670
N         3.78823859059440    0.19852266466635   -1.79453282455696
H         3.14371547017390   -1.58443327493837   -0.44082510327584
H         1.48720945907085   -1.21018135107353    0.17732043686351
H         2.75814359799504   -1.78866662107793    1.31992630322146
H         4.00580960670088    0.26480467733615    0.97077524195632
H         2.39402985350294    0.85177622445061    1.26218746415012
H         0.70747168506028    1.05301442245017   -0.38939196938657
H         1.23051461825321   -0.04777592666994   -1.83891616095098
H         0.90687716659986    3.01432513678997   -1.81457088905739
H         0.09078210751699    1.74069730571132   -2.81638120841306
H         3.25311706131443    3.40018138651000   -3.98429489373655
H         2.88906049435644    4.29990715625480   -1.73741610006305
H         4.66364326896726    3.57256850649979   -1.83044668309264
H         0.65282605521270    4.18137342222052    1.60886988812213
H         6.52960937671011    2.68518313966615    1.57407556071618
H         3.99324877789054    1.15828452886204   -4.47829173870146
H         6.34019231266866    2.08792054069152   -4.21194416398905
H         5.14483957527013    3.16133046094077   -4.84761030622994
H         5.55140543189025    1.40189076318296   -1.89770377725216
H         5.41164183129977   -0.09258236081136   -2.91508683705888
H         3.10346765221174   -0.25563443833392   -2.43512874015459
