37
 energy: -49.853155759686 gnorm: 0.310968574990 xtb: 6.4.1 (79825abcba525fcdf90b791dcacef51065a7a4e7)
C         2.43312909231767   -1.22587163470888    0.51868310601977
C         2.98334905472188    0.18784014336572    0.60064821393938
C         2.93638707598524    0.97234771013260   -0.77638159549226
C         1.29458484582883    0.92077430766502   -1.35075408117092
C         1.08258686078463    1.98700952408207   -2.41304434596258
O         2.01661211900088    1.93150704729253   -3.41891619076546
C         3.17091841800676    2.69684347313053   -3.17740702857711
C         3.40833801920019    3.38464652204328   -1.85853085791734
C         3.39744490466890    2.47315237960001   -0.54730861264891
C         2.46180780821697    3.12027812280806    0.46076246892832
C         1.38664246435925    3.60744805863332    1.01458595542603
C         4.74380180045191    2.58883975074745    0.14864504441631
C         5.67484188582207    2.80618904735325    1.03518883991115
C         4.38459113314551    1.77873198898355   -3.65078682030290
N         5.58600387667440    2.64970007652904   -4.09493933179767
C         4.78218566268570    0.86791606130393   -2.51413640973503
N         3.72791336787387    0.20290241286370   -1.76342605811975
H         2.82518020241658   -1.77964343399203   -0.33192171892865
H         1.34380679473123   -1.25062368251117    0.38773935378342
H         2.57643268891943   -1.75217906594452    1.47250718584919
H         4.03934471983856    0.25912297943896    0.88300476978980
H         2.42055561968672    0.73300392253091    1.36682810343100
H         0.62904751854031    0.99311684475361   -0.49430137343741
H         1.04120382636031   -0.08110054869661   -1.81336614665443
H         1.08410463963941    3.01072365659510   -1.99395375010759
H         0.11640676346846    1.78227432738997   -2.91253537630748
H         3.14980505692674    3.52339020030308   -3.89279863152916
H         2.63337363551821    4.18989864071417   -1.69959694413761
H         4.45000443358249    3.88314245137630   -1.86568583741770
H         0.90137165650602    4.15106355195929    1.79291537938937
H         6.66379494822278    2.77935313714278    1.43863184642816
H         4.01888458987314    1.16529952645112   -4.47771408908259
H         6.38609913016358    2.02033932900620   -4.16215755628883
H         5.41402770538626    3.11299881989937   -4.99050869347678
H         5.42721883113528    1.41196621800915   -1.79854013572995
H         5.42663965735620    0.02642066292871   -2.80362590824939
H         3.04470848469000   -0.32309888630572   -2.34830789247396
