37
 energy: -49.851226374229 gnorm: 0.330761288505 xtb: 6.4.1 (79825abcba525fcdf90b791dcacef51065a7a4e7)
C         2.92749685953947   -1.43689759214887    0.25774575553403
C         3.13851795217990    0.04184602308018    0.53492565456904
C         3.11141433487846    0.95195681890797   -0.76308527730261
C         1.61397663762390    0.73276979181517   -1.62198895132273
C         1.06354447549500    1.92926964850499   -2.38072066740238
O         1.79595815260406    2.55485578116249   -3.36024814140315
C         3.11854597383175    2.95300610767747   -3.09808917302236
C         3.38879855332105    3.47532043793823   -1.65244121138326
C         3.32776510667474    2.43143798141395   -0.44544975653440
C         2.15405039945819    2.83282335067975    0.43300312240066
C         1.21614405200079    3.50918353119869    1.03541837514029
C         4.50892980395147    2.60789245034665    0.49482985779879
C         5.49597360427415    2.77556653381491    1.33009404085862
C         4.08624891120809    1.87694445817686   -3.54199209329604
N         4.85155290308562    2.48145410850647   -4.74537371441819
C         4.95365772808294    1.17067767649114   -2.52787651923732
N         4.24104802753146    0.38312737298934   -1.53326544420919
H         1.89543286648954   -1.64456489507269   -0.01723433907417
H         3.20766726759081   -2.02055408098623    1.14387872731381
H         3.51504596703238   -1.79466592311273   -0.59905274815746
H         4.16076737185387    0.09717005939460    0.92464181686512
H         2.47674655966088    0.40802420944135    1.32798541249513
H         0.89027982977776    0.46228571856071   -0.85727598963478
H         1.75964692682121   -0.19901780710383   -2.24850082621093
H         0.66155107550675    2.64228679489661   -1.63665231593366
H         0.16613953961562    1.61441124830385   -2.94679516738685
H         3.20700482388669    3.83717321097364   -3.73514017340710
H         2.69083863246927    4.33343660193298   -1.42716502076620
H         4.41481460970492    4.00157731440145   -1.58948837285124
H         0.38741675789014    3.80365164521292    1.63816367252279
H         6.26126746516372    2.77657020888583    2.07564007440557
H         3.46953755724622    1.13944241828887   -4.06122924224019
H         5.61793614093226    2.96826880140048   -4.28014920686527
H         5.40103537373515    1.78426399388811   -5.25356754478522
H         5.51418908972597    1.99277379139956   -2.04403877852193
H         5.67580123973174    0.55666472249998   -3.08351711124497
H         3.98318213014637   -0.49508971429220   -2.03103342826058
