37
 energy: -49.839229227529 gnorm: 0.322393462777 xtb: 6.4.1 (79825abcba525fcdf90b791dcacef51065a7a4e7)
C         2.55874826770887   -1.40138831198410    0.26911548393868
C         3.10331367996357    0.00865596598177    0.42164391894189
C         3.08331428320542    0.94210864644045   -0.85981414258954
C         1.44326940137604    0.87301191901218   -1.43735769858102
C         1.09965796877114    2.03642185730463   -2.35314685992141
O         1.90452153669968    2.19656930721513   -3.45487700266529
C         3.13531777536570    2.82048608523949   -3.18588253235051
C         3.39749081502740    3.38637923551386   -1.74627321267486
C         3.40345294840235    2.42106667751375   -0.47411752395869
C         2.30764506064057    2.73571905353701    0.53116592361357
C         1.22152193806426    3.12688015526477    1.13727238379023
C         4.63493692641349    2.60296664021850    0.39810470652510
C         5.43367458820829    2.96338046664104    1.36358711247841
C         4.26434122555058    1.84571802116017   -3.67839863930084
N         5.18405705718832    2.64277805484175   -4.63655704744717
C         4.99609402195986    1.18329426377613   -2.53586906392482
N         4.14943012940918    0.34750643962188   -1.69806346449781
H         1.48458469210999   -1.23497533456633    0.22037965841860
H         2.85362691379355   -1.97927996086324    1.15425379201182
H         2.79296871799746   -1.85985814822828   -0.70158632310529
H         4.11595775410862   -0.04788851021763    0.83551347987701
H         2.40235304971390    0.49365902210023    1.11040937260707
H         0.85465668734858    1.16886789068190   -0.57266761869199
H         1.31755114144842   -0.17377197051918   -1.85015728646584
H         1.06143999063939    2.95407635117248   -1.73664100238394
H         0.04616699275410    1.91805978814374   -2.67104457096224
H         3.18194255483919    3.73538211890856   -3.78270896382788
H         2.69092827336303    4.24894108238490   -1.57015621727198
H         4.43152732639318    3.89981731610931   -1.71855791650681
H         0.44442412015525    3.50570376953305    1.76130277384577
H         6.21274093260846    3.15374694854554    2.06951263772425
H         3.72964361582561    1.07759541697176   -4.24225633487849
H         5.52177620455168    3.41773283377402   -4.06545589790497
H         5.99405540351386    2.03556679465746   -4.78306020491803
H         5.57800225877986    1.84674025832226   -1.86851712897048
H         5.74026903898015    0.46698742712900   -2.91049912994774
H         3.69085888621804   -0.44795951415109   -2.19048540821830
