37
 energy: -49.855927508899 gnorm: 0.326339605230 xtb: 6.4.1 (79825abcba525fcdf90b791dcacef51065a7a4e7)
C         2.54880473946491   -1.20702401488524    0.52093528050095
C         2.73244461901610    0.29946749085687    0.59022464006693
C         2.97682778639439    1.02162601850203   -0.79996692030417
C         1.47990558564827    0.91366754286463   -1.68067517155340
C         1.08018437792303    2.20231897899365   -2.38057639424744
O         1.85782480179389    2.57772773279216   -3.44903580616620
C         3.21945187207139    2.81559698618392   -3.19236580037524
C         3.59203635311667    3.37098945377195   -1.79668518276639
C         3.32300951153611    2.46775803295086   -0.50748327051775
C         2.20087652737709    3.08830172675076    0.30869006666064
C         1.39914470533752    3.60067180856761    1.20017113860055
C         4.58505754428857    2.50703452390482    0.33874607056384
C         5.70325137140094    2.54100089836798    1.00846624984716
C         4.20057673414297    1.62167548705516   -3.52832122688784
N         5.26436651005541    2.23459205478788   -4.47274382141812
C         4.96213868494032    0.93251286866994   -2.42165076979267
N         4.08908175519819    0.29144547365315   -1.45000091055411
H         3.35614036769448   -1.74922432104546    0.03295591793995
H         1.63506674050461   -1.57712890122801    0.03876597356058
H         2.56081997922116   -1.61009782474241    1.54304239138332
H         3.60917725113925    0.44537575585567    1.23052455586132
H         1.91186055823312    0.84127874049374    1.07401590574480
H         0.75138862108324    0.66114844762054   -0.91439731315899
H         1.61875737644952    0.03364066739107   -2.37941544570475
H         0.98126761922819    3.04829424120369   -1.67476396380622
H         0.05483803959292    2.05880412797831   -2.77170315720376
H         3.46698458393898    3.61037603568139   -3.90121291423995
H         3.20543890713806    4.39633743288073   -1.52564145683381
H         4.72098188844651    3.58368929875647   -1.91440968532463
H         0.73755471973731    4.14368997888516    1.83596373073227
H         6.56396394551128    2.58643872449886    1.63983291680553
H         3.64419789279351    0.82567965950930   -4.02900335880945
H         6.03597425769203    1.61605667654098   -4.72334534683894
H         4.77409053088481    2.28145084173205   -5.36923683814158
H         5.57486473960540    1.64346012136124   -1.83576923337241
H         5.56250697960220    0.13081947258202   -2.87340870943193
H         3.73390000492104   -0.58426491905447   -1.88876083553154
