37
 energy: -49.859920223340 gnorm: 0.324709288553 xtb: 6.4.1 (79825abcba525fcdf90b791dcacef51065a7a4e7)
C         2.47328858352384   -1.22540932766503    0.53455651602848
C         2.82909807507736    0.24970580300415    0.60855810078318
C         2.99752390959787    0.96789131788247   -0.79490581058502
C         1.44863228774866    0.85475068152240   -1.57989757580338
C         1.08151299868334    2.08966144906257   -2.38642104912186
O         1.92355043287526    2.49851618439846   -3.39194212843981
C         3.27585204727873    2.81965452727297   -3.18066018294663
C         3.52679244864970    3.42100445652830   -1.76322138425615
C         3.37142455490898    2.42845080157106   -0.52187450679437
C         2.31900582305472    3.01937541006870    0.40204039844942
C         1.46986446968016    3.72181597566242    1.09887016114439
C         4.64949234861538    2.50275440030573    0.29753603382349
C         5.69314713952541    2.58904817701923    1.07430776981179
C         4.23731654702762    1.71562271059795   -3.56760455960010
N         5.36090457095015    2.18437830222064   -4.52524102048208
C         4.92896350491547    1.06740516838288   -2.39241107609333
N         4.07241656915651    0.26514374923575   -1.53217667859522
H         3.24664484981827   -1.77236538212826   -0.00084520861876
H         1.50012258549208   -1.37420009067652    0.04959131387149
H         2.34596642789585   -1.60988729224502    1.55596807447410
H         3.75019612553027    0.29846565042206    1.19943386683282
H         2.00022759984466    0.77038386564186    1.10134579355889
H         0.65465761805362    0.72589820380654   -0.84867539327265
H         1.51856563830469   -0.03989021890159   -2.27032648439885
H         0.85655895029620    2.96621412145076   -1.75027566872303
H         0.12388090003741    1.82256271448895   -2.87274480990016
H         3.43325369305264    3.65753440772957   -3.86519830433145
H         2.83537721431693    4.30921941761503   -1.67789896228639
H         4.59027125137815    3.86906193017104   -1.71991271784794
H         0.60513061354906    4.00975262075292    1.65216042178312
H         6.52386176484465    2.71979212274204    1.73334783531575
H         3.69633590665191    0.90976115306314   -4.06937788154806
H         5.71434596190706    1.30243275496620   -4.89674726502622
H         4.90378927746386    2.61250904377831   -5.33395338423851
H         5.51999657250519    1.81801275204390   -1.83437473566217
H         5.65651076810419    0.35801920358579   -2.81036580971492
H         3.58608627505638   -0.52121098566972   -2.01244963776503
