37
 energy: -49.853026113331 gnorm: 0.332445688526 xtb: 6.4.1 (79825abcba525fcdf90b791dcacef51065a7a4e7)
C         2.86671966755729   -1.40660462925530    0.44576507901464
C         3.28413853073381    0.05407894748432    0.43140337093248
C         2.96605512585447    0.87212997824777   -0.88900721079620
C         1.27744848318119    0.81125186329586   -1.30491536461140
C         0.93842748837060    1.78742388456284   -2.41955173534603
O         1.91596914000856    1.81664706924948   -3.38434197204444
C         2.99650244557235    2.70810595418794   -3.26501727190116
C         3.07130522132830    3.29941420018215   -1.85469389033174
C         3.29416125282626    2.31085847931657   -0.62045858120322
C         2.48529840833970    2.88830839401230    0.52962333489167
C         1.68593747377201    3.56077857825793    1.30990625816875
C         4.68478244162727    2.50779808981782   -0.03925332440341
C         5.59130229372218    2.77018263011056    0.86042018290103
C         4.34337141788645    2.07576799118708   -3.61772998900706
N         5.35238437971436    3.23389637789046   -3.81743208234818
C         4.79546795433289    1.02665318272620   -2.63050759243741
N         3.74876571277618    0.25127863231091   -1.98204172569333
H         3.45969217821804   -2.06690719203565   -0.18374264452919
H         1.84883200869312   -1.46410657549147    0.03958748455075
H         2.80649556915431   -1.75856799814737    1.48490446001759
H         4.37862534543597    0.03323130758150    0.47136961218873
H         2.90824399328121    0.63613943115541    1.28045019515402
H         0.70787733656389    1.00785063754066   -0.40013790681371
H         1.08876016970551   -0.25356865555475   -1.64035399525855
H         0.70645838104704    2.78415330034137   -1.99961047607583
H        -0.00792513361474    1.42954740382697   -2.86816393979409
H         2.88891655831499    3.57195357974656   -3.92653293192779
H         2.15993843078496    3.92501981353550   -1.62602609838201
H         3.91608309098294    4.08560471311154   -1.89797368060551
H         1.03582793464908    3.97942592765300    2.04400045536428
H         6.45538016008822    2.88626967304429    1.47800246339373
H         4.22716394922047    1.76309682465620   -4.65820196632186
H         5.50684485585543    3.63671185053817   -2.89296071383999
H         6.25534612575909    2.80062801305256   -4.02528929269851
H         5.33857258088285    1.59977473829165   -1.85545570000349
H         5.52840177412406    0.30867372152967   -3.02364005812994
H         3.10877000199646   -0.10269362340462   -2.72409440014767
