37
 energy: -49.852180443793 gnorm: 0.330925367846 xtb: 6.4.1 (79825abcba525fcdf90b791dcacef51065a7a4e7)
C         2.68566806562073   -1.37138253000339    0.48615621111955
C         3.13873219944510    0.07822556683651    0.52371328356741
C         3.03525261939180    0.88897792046484   -0.83490411787206
C         1.42611977759732    0.73257694899218   -1.47857201724936
C         1.05198794042992    1.85781940030414   -2.42942220692895
O         1.90093860531745    2.20652907931870   -3.45164830930742
C         3.09444960526007    2.88979444007985   -3.15981018322384
C         3.28971335209498    3.42747541128931   -1.77828105167192
C         3.29457981399748    2.37864888410185   -0.57404548573861
C         2.33192483346667    2.96842498398133    0.44372432615960
C         1.51758084635847    3.45058817052308    1.34060678562574
C         4.59694946147550    2.62096947000000    0.17129074867550
C         5.45259982450984    2.83636380122134    1.13124078206250
C         4.23790900397764    1.93590599273316   -3.61610725762966
N         5.25414406285435    2.74081971664879   -4.46382752134129
C         4.88766888200730    1.06046352380796   -2.57157204784705
N         4.01386442590875    0.24556889913699   -1.74108316801899
H         3.42041124237022   -1.90390044470706   -0.11423781083991
H         1.67093597338605   -1.35638807177403    0.06845303256033
H         2.59017810052327   -1.81131310231418    1.48848278782586
H         4.21083379508300    0.11728160540793    0.74508651279091
H         2.56791247804610    0.62166239100372    1.28516773626131
H         0.81406801608974    0.84722464466514   -0.58754274477548
H         1.31645388155744   -0.27643364074888   -1.98040477125889
H         0.89610183322616    2.74160323951872   -1.78269544590541
H         0.06388823460782    1.65592464499334   -2.88528320518073
H         3.11606141768262    3.71986369679067   -3.87109660261810
H         2.58828796778639    4.24963655502683   -1.45222238647355
H         4.31579122145462    3.95701206883930   -1.75895629135750
H         0.75130440353248    3.69879207303329    2.03918927419607
H         6.28283177056612    3.00733699371017    1.78162353128890
H         3.78425545594168    1.22052231252728   -4.30623334626775
H         5.70294084122347    3.31528044111675   -3.75014553147376
H         5.87504907021489    2.15430258863209   -5.02662467935159
H         5.53107512819760    1.61558288505477   -1.86304732283337
H         5.55725019516239    0.38976305973839   -3.12750493867707
H         3.45849968574545   -0.44182383022660   -2.29298377531520
