37
 energy: -49.849406861143 gnorm: 0.333437076229 xtb: 6.4.1 (79825abcba525fcdf90b791dcacef51065a7a4e7)
C         2.89307637196713   -1.34327173970338    0.32700294848677
C         2.90736576404847    0.15327498910074    0.58812548509094
C         2.86825567394394    0.92580497199934   -0.79590358685028
C         1.26750376095996    0.89876717817969   -1.47776897058731
C         1.00130158545810    1.98415403247244   -2.50797917588330
O         1.93138745031995    2.06983612982982   -3.51538214298707
C         3.10700994743658    2.78832273727012   -3.23577833181807
C         3.24600122637827    3.36272486445539   -1.88191855981911
C         3.26020430525500    2.37118634012630   -0.63016232608295
C         2.29131127508351    2.90887339904105    0.41028696502539
C         1.66282905336343    3.37119763398156    1.45494096083352
C         4.60690516569928    2.57982645628741    0.04309701612825
C         5.49301043756228    2.77984118255965    0.97843002766151
C         4.37113592393636    1.90659431194198   -3.59512539687471
N         5.48051860070706    2.90811699236378   -4.00190769777859
C         4.83688003655111    0.98011378768398   -2.49769317598622
N         3.80293053246062    0.28305931283774   -1.74778468951865
H         1.92433283447933   -1.81132102301062    0.16464016401351
H         3.36631695605744   -1.88529149894606    1.15564034100563
H         3.49775676416821   -1.60223456334438   -0.55311959268850
H         3.84411806628956    0.45635380811104    1.06830427029105
H         1.98982772710697    0.39899556416411    1.13467554628009
H         0.60891970877817    0.93682281852420   -0.61376466989109
H         1.08014469305584   -0.14053347612364   -1.88607745872369
H         0.86283811962218    2.92427798385459   -1.94174187503639
H         0.06681677875688    1.78058226060961   -3.06494277458503
H         3.15718740868036    3.63739675603900   -3.92277610824556
H         2.43140446992389    4.11942825734330   -1.68674462393759
H         4.27313233650912    3.88193802690366   -1.78685181790587
H         1.07102249855048    3.55253242062614    2.32309125552971
H         6.25767709503688    3.17736119942655    1.60991824682262
H         4.09783106074961    1.37994109953825   -4.51261665858126
H         6.05015235419602    3.15217618000484   -3.19152621064865
H         6.12901265707585    2.42589363689430   -4.62895004480629
H         5.51500921375890    1.51016293393895   -1.80247730285174
H         5.48785825628179    0.18803924315769   -2.89276899115899
H         3.31256270041095   -0.46837994343693   -2.27732361404997
