37
 energy: -49.851718427419 gnorm: 0.321477817598 xtb: 6.4.1 (79825abcba525fcdf90b791dcacef51065a7a4e7)
C         2.53874475023244   -1.36335625549409    0.33500882105038
C         3.01877135250521    0.07632660805501    0.40521559468779
C         2.90667861360063    0.88303537876181   -0.95512437134103
C         1.26591473209800    0.67524746057334   -1.49623082807711
C         1.02411950448423    1.77911908407531   -2.51272666965647
O         1.99963917383235    1.97849747712749   -3.45923155989679
C         3.10807886387107    2.78796806417114   -3.15491531922388
C         3.21128138961076    3.35651824969585   -1.79957275149958
C         3.24318748206603    2.35646106854071   -0.55493959924892
C         2.36519636448665    2.87184242601249    0.57373637600341
C         1.71764203617644    3.47047916763763    1.53412329866693
C         4.60843962759707    2.46399805873557    0.10455599276134
C         5.53751334492624    2.98674423661068    0.85528548510963
C         4.39225437526304    2.00906558309920   -3.59404291489166
N         5.45129181767653    3.08079639031900   -3.95332305044084
C         4.86518037005370    1.10320091174027   -2.48256128180799
N         3.84708773646325    0.24094463949261   -1.90178527779553
H         1.47874534448538   -1.40351328382611    0.09275994122754
H         2.79070808379677   -1.83464785580972    1.29353931310383
H         3.05975086447916   -1.89635155871808   -0.47232286044334
H         4.06898846705976    0.09061922711113    0.71629925788647
H         2.45857633938331    0.54728929764127    1.22090383909252
H         0.51295649078437    0.74720307312577   -0.71548701989499
H         1.33705263298195   -0.41246935843822   -1.80246050128676
H         0.85313788135072    2.74603129626633   -2.00333888532097
H         0.07382948915847    1.54163760665739   -3.02795788505550
H         3.19543597309855    3.63997336335708   -3.83452264512623
H         2.36835161403991    4.08809106422764   -1.63066042485238
H         4.20177952341503    3.94968455607005   -1.77339093216010
H         1.28305380055552    3.77102377623571    2.46019469983135
H         6.50880266160095    3.17926463356520    1.25659284991484
H         4.20304587322262    1.45121421097130   -4.51428818608477
H         5.87348246640384    3.38329532279878   -3.07524839138748
H         6.16129861034566    2.61272875801902   -4.52171469064389
H         5.23481985611195    1.73647647312859   -1.65402938588131
H         5.72485480907287    0.47147499885197   -2.74547164001245
H         3.33936211607499   -0.25389224703773   -2.66525380334386
