37
 energy: -49.852262332739 gnorm: 0.326451453432 xtb: 6.4.1 (79825abcba525fcdf90b791dcacef51065a7a4e7)
C         2.58038068241827   -1.24229731972464    0.45243644645862
C         2.76518122977957    0.25892672936604    0.59462079748335
C         2.94255815396562    1.00792021222675   -0.79153028930929
C         1.49760064086609    0.90829280824028   -1.75602512962543
C         1.10276306853129    2.23957174325351   -2.37413594322087
O         1.89833759543570    2.51688549667236   -3.45922586136933
C         3.26067391829736    2.76796365036203   -3.21945710561134
C         3.55771955756087    3.40152652194856   -1.80533731030898
C         3.33804104208107    2.47301557458570   -0.52476993489175
C         2.24526389982558    3.13268482622145    0.30050000467502
C         1.53284313996814    3.56833508502201    1.30184961605592
C         4.58948251673249    2.57055119027470    0.33243075365664
C         5.57378848883596    2.72061003773247    1.17425044879837
C         4.14191963014911    1.57744732145384   -3.54305886783721
N         5.21475331265114    2.07556922646300   -4.54313481536729
C         4.93269168654164    0.99987866134035   -2.39382642061511
N         4.11937035633742    0.33474197208785   -1.38714829187107
H         3.47159055557317   -1.72253837401713    0.05367669592230
H         1.71192854921874   -1.49969190881761   -0.16717707504549
H         2.45991436853296   -1.66821243629564    1.45812028792213
H         3.70662191415216    0.43428993556708    1.12647650713799
H         1.97910929501871    0.76453235186664    1.16683184914533
H         0.69652617359674    0.46327269940327   -1.17128465901039
H         1.68361086983717    0.15671336580945   -2.58215685549691
H         1.08916912553231    3.05952837656110   -1.63176394713470
H         0.06635746198036    2.12883150202203   -2.74630766212564
H         3.47671200999717    3.57194607415822   -3.92822379286409
H         3.12402530567567    4.43207855395628   -1.64999069975514
H         4.67750012820696    3.68361771021089   -1.81692803955650
H         0.77047200759394    3.86995924967708    1.98347664426390
H         6.44367526036946    2.77639580905196    1.79206882598047
H         3.46829025972713    0.77762950502730   -3.85986212164323
H         5.78506766696180    1.25622747961090   -4.75334017693232
H         4.78613266011354    2.49315013700320   -5.37269887562311
H         5.58898127750209    1.78400119048214   -1.97124835568051
H         5.55090968368131    0.13357772074207   -2.66689933196609
H         3.69705850914698   -0.48793691475290   -1.86713286688478
