37
 energy: -49.855088057946 gnorm: 0.317298225654 xtb: 6.4.1 (79825abcba525fcdf90b791dcacef51065a7a4e7)
C         2.86039149541719   -1.41660796637429    0.42516589887187
C         2.96273438399668    0.09790181981928    0.48703122034016
C         2.97253346506472    0.89943221934771   -0.88093136771494
C         1.38955622578580    0.89999960933057   -1.60360755299204
C         0.97391696663643    2.06704257221776   -2.48424142573529
O         1.81198299680539    2.44342273774200   -3.50563516764370
C         3.10184386964159    2.87970496667791   -3.15576905404001
C         3.37821604737776    3.40693906546850   -1.72769704312892
C         3.30068075877495    2.35829146284968   -0.52579417508086
C         2.25790750574885    2.83118073851711    0.47390355713621
C         1.40013387790703    3.22052833395568    1.37538475785835
C         4.59589369061557    2.42749443539411    0.26669962212035
C         5.52437143130398    2.90104300411229    1.05010063560401
C         4.20156488894048    1.85524525616297   -3.58882820038871
N         5.27109952056917    2.68568587507019   -4.34096747842053
C         4.88539338398589    1.07049402775297   -2.49512562711070
N         4.04603236078441    0.23222931937592   -1.65246044588391
H         2.12684670268979   -1.91582002120830   -0.20459215638995
H         2.65500917574516   -1.82243194223310    1.42391862177526
H         3.84298999352214   -1.77787498926111    0.09154614836922
H         3.89860592713367    0.36480815712445    0.98986198105228
H         2.21288665789570    0.60149267388877    1.10759246551363
H         0.67194117269314    0.69788524803690   -0.81249249329030
H         1.46930771948483    0.00492470655008   -2.29240774867756
H         0.75329143827614    2.94580660975049   -1.84963288594467
H         0.07083612993024    1.80085252530787   -3.06604863764891
H         3.26994838723727    3.71841313237946   -3.83673887402709
H         2.62862422897799    4.21707320778945   -1.49093652532545
H         4.44426684752518    3.84277545495044   -1.81255363313909
H         0.77071934257755    3.84476931463365    1.96780591684837
H         6.33877634361851    2.98046016396673    1.73708838572385
H         3.77320174546058    1.15762689120042   -4.31248765339897
H         5.74785530103700    3.25714362221154   -3.64318124760689
H         5.95281065359321    2.03879284380789   -4.74478098476324
H         5.49004317428047    1.74008208531746   -1.85466731226177
H         5.63811876384727    0.42171947349706   -2.96388538088109
H         3.65047412849198   -0.53516186494332   -2.23570781568214
