37
 energy: -49.853836348979 gnorm: 0.312050226100 xtb: 6.4.1 (79825abcba525fcdf90b791dcacef51065a7a4e7)
C         2.78190531829207   -1.42228175102695    0.32569759081341
C         3.06679277277395    0.05211935971953    0.55596217852964
C         2.95696247572540    0.92087013830731   -0.76580861718463
C         1.35352508956578    0.74823220893463   -1.41946206135870
C         1.00718607596311    1.79966782664805   -2.46099637116180
O         1.96993136420434    1.96996677309950   -3.42607753607244
C         3.05041288656292    2.82568447569526   -3.14895582030073
C         3.12973396325097    3.42930806644823   -1.71965774371255
C         3.25173451610641    2.45262474289790   -0.46210077338915
C         2.27061024532825    2.92376537092383    0.59894466791179
C         1.32382568138180    3.47201442142023    1.30821010651269
C         4.60465836802834    2.54582448383100    0.22442876388549
C         5.88761368725323    2.66978246087216    0.42114251166818
C         4.29880104040214    2.01302360555657   -3.56669838090825
N         5.32173190351743    2.99718064948880   -4.18661515395505
C         4.90617005595980    1.22551619890814   -2.43066308948063
N         3.95488018350968    0.38486098726040   -1.71957543665835
H         3.16316009069100   -1.71352344196327   -0.65088774741452
H         1.70749353076019   -1.62967144011688    0.40942826512888
H         3.36786810344445   -2.03386363666004    1.02564831753436
H         4.11730060669667    0.12137485674616    0.85856799327753
H         2.45232634909581    0.49256777304760    1.34931445152676
H         0.65521094530720    0.86170048404594   -0.59413368807422
H         1.30634067430540   -0.30353127918099   -1.83603412954013
H         0.75134539627714    2.78401865291842   -2.02599194161495
H         0.10540080806504    1.46065522663527   -3.00575829920164
H         2.96963573286858    3.71217853242737   -3.78378946040374
H         2.17770527123425    4.01636930127906   -1.56714140503119
H         4.02766253787159    4.15016883927426   -1.63189486924479
H         0.72742850016613    3.77363222112400    2.13895635437282
H         6.83184605165861    2.55447471790163    0.90760315316818
H         4.02507683361598    1.29524498973557   -4.34369148708823
H         5.89262364415117    3.23050522490173   -3.37396029617379
H         5.83680196203161    2.55423541143502   -4.95131663923861
H         5.36174853164269    1.87112326493775   -1.65621092336391
H         5.62748730985640    0.53064594512557   -2.88243335871116
H         3.55759802431066   -0.34924407658898   -2.34310545238591
