37
 energy: -49.856163949868 gnorm: 0.312622308332 xtb: 6.4.1 (79825abcba525fcdf90b791dcacef51065a7a4e7)
C         2.72126613963833   -1.34344909326438    0.45230753859229
C         2.79148079153144    0.16442719469950    0.62383094917966
C         3.01764525545490    0.88912003642807   -0.76812399490853
C         1.53183463241412    0.80099007171232   -1.66961056330916
C         1.03932808051676    2.06390220656812   -2.35717985082541
O         1.85277752992457    2.55345021731847   -3.35010714653072
C         3.17463122998212    2.92644669689277   -3.04999721010440
C         3.49165125481160    3.45454941599935   -1.62371049817454
C         3.35709889383658    2.39297985641619   -0.43829505738931
C         2.26160250721935    2.97887510183612    0.43749619749059
C         1.23469891626378    3.67004089874244    0.84712330748734
C         4.65260405033700    2.42091206434028    0.35624764334901
C         5.79634932271606    2.49494276196921    0.97786048165750
C         4.13714865276120    1.81310476946943   -3.55514990537764
N         5.15891454912385    2.45437326433846   -4.52675610847325
C         4.88532776963884    1.12840637875730   -2.43664315847737
N         4.13936115954733    0.28042753935378   -1.51916565959005
H         3.57463920157410   -1.79653068549699   -0.04805966138930
H         1.86772610687532   -1.55391656336447   -0.20462080961621
H         2.51709490624074   -1.87200686492059    1.39371956196437
H         3.66051828991978    0.35346387241931    1.26334034944504
H         1.89614061081773    0.54186380328171    1.13066345312027
H         0.73565486636858    0.46448274485385   -1.01041012607579
H         1.74451119693061    0.02535259137665   -2.46655489639734
H         0.72400586648785    2.86403894589810   -1.66149101517156
H         0.10062256303619    1.83478184508607   -2.89685343926551
H         3.30395300846830    3.79764130911736   -3.69784459725334
H         2.81199613129981    4.32632429271059   -1.39493497168414
H         4.59803959417377    3.78545977080778   -1.61907503548525
H         0.54689768517781    4.06443278918303    1.55999552792969
H         6.72723218989153    2.48666058530642    1.50217246439955
H         3.49640063890436    1.14047793460636   -4.13035812293057
H         6.12324517809407    2.41393825474126   -4.19630625914162
H         5.17116364926841    1.98523704166021   -5.43561647993362
H         5.39735362965087    1.93169705502400   -1.87389099547438
H         5.61688965570349    0.44721435455358   -2.89275088652556
H         3.83196476548978   -0.52679554335324   -2.10177306687621
