37
 energy: -49.850923013324 gnorm: 0.331090657196 xtb: 6.4.1 (79825abcba525fcdf90b791dcacef51065a7a4e7)
C         2.84500982752171   -1.32846788427620    0.35315745319842
C         2.96388800631734    0.17769873407668    0.51244139439872
C         2.96194305580567    0.99906151559026   -0.84374002574805
C         1.26930900215816    1.04317408396372   -1.24514029114834
C         0.96476615849367    1.73675377522791   -2.56288918887461
O         1.99287829266493    1.81357981263342   -3.47082369956223
C         3.05083345313795    2.69369683424553   -3.18339638913908
C         3.10838701926604    3.45827332769778   -1.85783943749540
C         3.35579105026428    2.44799323991670   -0.64607652015734
C         2.53637408645848    2.95372968566662    0.53001116588407
C         1.58468682852179    3.25640237152483    1.36829279739163
C         4.77105101634897    2.56917852176314   -0.10499865032587
C         5.92006313671106    2.91186881247468    0.40722272767007
C         4.33274855174461    1.96959087223949   -3.49829749377906
N         5.44147088703854    3.05124752242986   -3.49653179051753
C         4.74895522774167    0.81583086676681   -2.61781406253305
N         3.62436790851868    0.21851404348170   -1.91367257779892
H         3.61026147265122   -1.64545217959544   -0.35239674247729
H         1.86315930973826   -1.64810081961642   -0.01857678730082
H         3.10578685981393   -1.83043992801682    1.29514217442195
H         3.90064825730980    0.36977074262745    1.04678387620964
H         2.17041436115663    0.55598368529902    1.16686609586477
H         0.70690591255779    1.54068583206626   -0.45909357328125
H         0.97254119908775   -0.04918027711555   -1.27075108878296
H         0.56955513427106    2.74841038999845   -2.35315364946860
H         0.16530916677797    1.14490955100607   -3.04817333586471
H         3.12374191300788    3.49620966019303   -3.92236048330263
H         2.16701969659945    4.05887159666632   -1.69240052727819
H         3.99999681991773    4.19159184435370   -1.88774282329370
H         0.91999467875058    3.64801280649553    2.10424648654005
H         6.74669873049960    2.95208280326728    1.08292310045140
H         4.25986045366941    1.62155781373401   -4.53145270241820
H         5.66504445779480    3.32852750895911   -2.54055254261135
H         6.22562563545464    2.55868043832367   -3.93097972628190
H         5.39780171364903    1.16325077477282   -1.79171840576531
H         5.24657066934786    0.03588790283827   -3.21052602620027
H         2.91837109945562    0.01046443072049   -2.65111200148515
