37
 energy: -49.830763867740 gnorm: 0.322674183598 xtb: 6.4.1 (79825abcba525fcdf90b791dcacef51065a7a4e7)
C         2.65062548530560   -1.42373751074288    0.44021999719840
C         2.88626129221976    0.07695872506289    0.46090457858764
C         3.10991256410566    0.89659619606336   -0.87776758843663
C         1.77288159278414    0.63882599808162   -1.96127155155797
C         1.10824775733488    1.94321423052095   -2.37004348442980
O         1.79912747543987    2.76678537038077   -3.22542507698088
C         3.17151844207118    2.98663991919843   -3.01400945749362
C         3.38654539265027    3.45961295897564   -1.53176486019807
C         3.27172568326341    2.36352488533090   -0.37606101019971
C         2.02192179043491    2.78835331416291    0.37753492350926
C         1.19215990321673    3.47896907946010    1.10868513381599
C         4.52368748259332    2.50749941158317    0.47380662498014
C         5.60380762460552    2.77687812268636    1.15263782969323
C         4.07825263666447    1.93419803729873   -3.55174348582572
N         4.94872879518944    2.54266114330358   -4.67925993779429
C         4.91999805560988    1.03816871582404   -2.67525199995041
N         4.34494295987288    0.38083406562159   -1.51141264206247
H         1.62359329125828   -1.60462732251807    0.12976936460353
H         2.74762146344171   -1.83017211503421    1.45500307295924
H         3.26489422877978   -1.86223460258739   -0.35834748243358
H         3.76412468936326    0.13514493592234    1.11351742936993
H         2.04697451535411    0.52373312304632    1.00584674365403
H         0.96305199552980    0.03584750207090   -1.55843464394441
H         2.23355841533170   -0.08026782245951   -2.70467321587088
H         0.88719134890159    2.39276941293211   -1.38380616073848
H         0.14892332687702    1.85411088982867   -2.91471678328490
H         3.37564686155290    3.88641240584065   -3.60065370440984
H         2.75132126928628    4.32610265668145   -1.18543166275660
H         4.46835447523878    3.85415474995699   -1.61919592970183
H         0.30080080680997    3.73579262388194    1.63434936305673
H         6.50729031174090    2.81055815504002    1.72193503341970
H         3.36262875421015    1.24773345705639   -4.01054432358325
H         5.76341819834219    3.00481636887553   -4.27495883865525
H         5.35463923002674    1.82741857780985   -5.28747930783591
H         5.80836955320293    1.61792792233167   -2.36090866278900
H         5.41872467441685    0.33291688488302   -3.35431844826695
H         5.07206199388025    0.16130858633385   -0.79822296623331
