37
 energy: -49.852522491756 gnorm: 0.327869888098 xtb: 6.4.1 (79825abcba525fcdf90b791dcacef51065a7a4e7)
C         2.59541087619840   -1.32559183166583    0.30586001656745
C         2.77383140853505    0.16235509528991    0.55530206149062
C         3.02934329415153    0.96033680802607   -0.79073193083628
C         1.56383211578078    0.78405649854603   -1.71229601969855
C         1.08203629408618    2.03531399132478   -2.42817922398825
O         1.88175380169085    2.59687074141224   -3.39377116710598
C         3.21881033317301    2.88540488811964   -3.06893670174439
C         3.43240278314023    3.45915670028182   -1.65044042827609
C         3.27044257537480    2.42006232372407   -0.44865185261445
C         2.24726629331093    2.94094860805679    0.54743228547985
C         1.42636661028881    3.67897875723161    1.24131319925209
C         4.60776972105006    2.42574516283113    0.27379937480038
C         5.77028818665263    2.62586126615458    0.82926371485099
C         4.11810285518743    1.72614294440456   -3.53341561978531
N         5.11236154902902    2.47099346264238   -4.45856252627695
C         4.91237499067003    1.08318036522788   -2.42194267065618
N         4.19662977249295    0.30412277565109   -1.42290447757080
H         3.47533357632927   -1.78530946804873   -0.13943941469570
H         1.75116350085206   -1.56868548965815   -0.35181303355373
H         2.44564201441985   -1.81387002453832    1.27872665835268
H         3.65112619931649    0.36114666670078    1.18041730957464
H         1.84728324880890    0.45133697231900    1.06419262166816
H         0.75425188613224    0.43219561636031   -1.07789993781182
H         1.89999047852980   -0.06182570607164   -2.38567996896687
H         0.87148493090769    2.73494306538326   -1.59762691463879
H         0.11851265932709    1.81932997412127   -2.92806409097457
H         3.43042249715042    3.68070099725260   -3.78875251336025
H         2.68807278868306    4.30777801797179   -1.64175271120371
H         4.52598413696192    3.80335062638863   -1.51177293693471
H         0.55896780795692    4.12127694345051    1.67581739882021
H         6.72942904582066    2.49898326763306    1.28254660448078
H         3.53650023683824    1.02287763917660   -4.13425309746307
H         5.94594725116951    2.74824999875117   -3.93988213791664
H         5.33513773857783    1.88838106409201   -5.26924099097382
H         5.46616668739068    1.87434142165760   -1.88202107605532
H         5.64596227626787    0.36312721007162   -2.81003128778296
H         3.74853401239976   -0.49948612026205   -1.91173570773478
