37
 energy: -49.853544237086 gnorm: 0.314963144121 xtb: 6.4.1 (79825abcba525fcdf90b791dcacef51065a7a4e7)
C         2.41757915684627   -1.19886047446642    0.50769641174533
C         2.95005264976987    0.22012764764331    0.61251037182567
C         2.93085769157298    0.96374179730933   -0.78768182786216
C         1.33240771896291    0.84635397237718   -1.46536605740787
C         1.03526609771083    1.95581529125554   -2.46088789448005
O         1.89137018688485    2.29769560711126   -3.47944840534912
C         3.19730444197013    2.75381880151755   -3.22849640793137
C         3.35458935426661    3.37412688990956   -1.85043760198380
C         3.31055741900063    2.45842080169367   -0.54284914806486
C         2.23325548372003    3.01417979589909    0.37418319977800
C         1.67295089760646    3.72185511422987    1.31508169910110
C         4.61560706454410    2.49085485554353    0.23574283675084
C         5.80773147058855    2.58889883458898    0.75464843985542
C         4.34866946514067    1.76023371330331   -3.57395275708820
N         5.53939401629325    2.61517534522144   -4.07445180073393
C         4.87075926876624    0.92909273603370   -2.42666546397529
N         3.88171201547914    0.21081110327713   -1.63726297899790
H         3.13203244437989   -1.79241225302379   -0.05900336150204
H         1.44567941731080   -1.35487689767808    0.02246268438021
H         2.38298898575414   -1.67553719878308    1.49708947259284
H         3.99206522142345    0.12081776912283    0.93543553457105
H         2.36337979913207    0.78171106418870    1.34831649600105
H         0.65339277650895    0.96187320432910   -0.62436746504548
H         1.19364909885827   -0.21182716623648   -1.84347161846850
H         0.82958911420826    2.85022310559910   -1.84334316210784
H         0.15100422728866    1.67517887299423   -3.06440750140905
H         3.28601824385213    3.54288879827305   -3.98010056796125
H         2.51109087728818    4.11404163278963   -1.72675551330274
H         4.31370848516548    4.00959320931470   -1.75098228838016
H         0.84970698165314    4.18306638237004    1.81142422358870
H         6.67803837316447    2.94041659267106    1.26505591075879
H         3.95779318893878    1.09780985634397   -4.35000671154568
H         6.37356193340471    2.02948060566923   -4.11793987981055
H         5.43904801110301    2.88821425332261   -5.05508753565495
H         5.50986890404375    1.53022921262357   -1.75264009390472
H         5.44757075224517    0.10048343244779   -2.86017989410458
H         3.39666446449924   -0.44417620105679   -2.28630345835194
