37
 energy: -49.855370768298 gnorm: 0.319599966229 xtb: 6.4.1 (79825abcba525fcdf90b791dcacef51065a7a4e7)
C         2.84062623029214   -1.52178962404691    0.47134806060524
C         2.99495650000528   -0.01042615756918    0.47332733682815
C         2.99200995793715    0.82491225283132   -0.87428896758844
C         1.39500065609773    0.72325485208713   -1.55788621296606
C         1.01001693664865    1.85279203375361   -2.49926529713013
O         1.89479829768034    2.25350689883025   -3.47078545449686
C         3.07640197251281    2.92111560581268   -3.10390547133918
C         3.21917635532266    3.37014484728555   -1.64065760484056
C         3.27240526581716    2.28701529053563   -0.46837730382304
C         2.21477971378813    2.80262442169432    0.49389674607081
C         1.55916170034687    3.62432753167755    1.26526214835721
C         4.57647260868027    2.40184925394082    0.30404325214373
C         5.74803119276863    2.62273521961029    0.83196012303714
C         4.25544265929856    2.05850989455748   -3.58481961869062
N         5.24374579005586    3.05070397824800   -4.24667856542982
C         4.86734807489032    1.19705595141307   -2.50634380245542
N         4.02600306503692    0.26322032254436   -1.77327569577911
H         1.90387668584264   -1.85761088766192    0.03132508763524
H         2.79997653689655   -1.83871587017353    1.52124679625353
H         3.70203337317625   -1.98461350613578   -0.02973835571811
H         3.94173164458523    0.23496265372268    0.96661677421956
H         2.21009567555953    0.47792153849895    1.06195424220962
H         0.61232368516134    0.63277035412696   -0.80894433798301
H         1.44192320084088   -0.25795423020757   -2.12090673091873
H         0.69657163048640    2.75461660363895   -1.94061125255297
H         0.10995569976668    1.57756924175100   -3.08154869484748
H         3.14185020749923    3.83753165208818   -3.69661836174739
H         2.33130764374753    4.04519860079248   -1.46672558303978
H         4.13484483956576    4.07363139926818   -1.65727708211214
H         0.73282589104738    3.97375142847438    1.84134754585833
H         6.71408261391531    2.82892045857195    1.23908036835354
H         3.79085619920620    1.55012805329663   -4.43308649552695
H         5.71632025393379    3.50795894998826   -3.46670618014784
H         6.00449979516722    2.53325113868808   -4.69362589256129
H         5.45105028258659    1.76930827435863   -1.76071963408690
H         5.63764535002337    0.53608576122108   -2.92705765075783
H         3.51679664335814   -0.40380539763081   -2.39078565367030
