37
 energy: -49.854458016032 gnorm: 0.321630143141 xtb: 6.4.1 (79825abcba525fcdf90b791dcacef51065a7a4e7)
C         2.68855594295918   -1.31106838570492    0.38675131069802
C         2.75771118735648    0.19780301960667    0.54974183802179
C         3.05371692525796    0.97929970498687   -0.79766759491111
C         1.58055710451101    0.79520553262119   -1.70540522750120
C         1.03495691985355    2.05653531348952   -2.35473481382894
O         1.82023437941336    2.59355085093812   -3.34580267237190
C         3.15289200435441    2.91202048303614   -3.03101655416701
C         3.40859372542388    3.50637643133265   -1.65140016036739
C         3.33706349682903    2.45127495722145   -0.45478479852128
C         2.25718799706603    2.94492510390154    0.49420113961318
C         1.32180953232276    3.69956773481277    0.99978709384569
C         4.66876462985381    2.42600687859895    0.27757137785114
C         5.78829737491288    2.45413233930479    0.94532259076018
C         4.13055179440858    1.76709735825544   -3.53478836699896
N         5.17003164467011    2.49586917138334   -4.42226948155166
C         4.90843754953467    1.04287845762237   -2.46238827560114
N         4.18404296929295    0.28364655545867   -1.45436115922806
H         3.60023459177500   -1.68656725240690   -0.07339919652355
H         1.85545500667075   -1.64829804677629   -0.24301133018061
H         2.52259526185230   -1.85143960692814    1.32896774225582
H         3.61125574865524    0.34695318694828    1.21992779852457
H         1.88376466424818    0.56656865000557    1.09855966242044
H         0.87839221403355    0.49961358580033   -0.92998631816951
H         1.68646825296350   -0.05035057930703   -2.45091363275607
H         0.82828836261626    2.79742078759795   -1.55974633712131
H         0.08192346112420    1.73738578915254   -2.81818122750833
H         3.33862116680259    3.72537346736793   -3.73767914189499
H         2.64935579752199    4.33789193466061   -1.57139706139693
H         4.46497304303209    3.96495960248908   -1.73732172836651
H         0.37721310493098    4.06985334362295    1.32754988643865
H         6.74242457646462    2.39934706472794    1.42297773999745
H         3.53768358471712    1.01780324481596   -4.06480250577253
H         6.11222572731331    2.33636804500510   -4.06506455967121
H         5.22217898241457    2.17347782109881   -5.39160455423146
H         5.56018509617911    1.72973260205197   -1.89003094960768
H         5.58558117856886    0.32760510245540   -2.94931759248648
H         3.85273151936966   -0.59745395471847   -1.90093439343611
