37
 energy: -49.852078039065 gnorm: 0.322083348604 xtb: 6.4.1 (79825abcba525fcdf90b791dcacef51065a7a4e7)
C         2.56798295114869   -1.35990303176954    0.35374736506294
C         2.94355206507889    0.10278044853465    0.51971770746191
C         3.00178902832956    0.92425282034162   -0.83514768966609
C         1.38675141891089    0.87317108440613   -1.48099775546666
C         1.05067813232863    2.08275037314016   -2.33787229665405
O         1.88497671810055    2.28719813078317   -3.40997717035322
C         3.15572995969915    2.84815442600005   -3.19317360521461
C         3.49314186020384    3.39263781346507   -1.77255968635182
C         3.34671769672574    2.40751545605729   -0.52422564010060
C         2.27701228984539    2.80243676730260    0.48084317161047
C         1.51454322408106    3.62047233629954    1.15128647173221
C         4.62497652305368    2.53505082016094    0.28830194643659
C         5.47396592681475    2.94786139230311    1.18765763673826
C         4.27348786580773    1.79551072994887   -3.58727101509736
N         5.39649979616753    2.61815618224783   -4.26649712429927
C         4.89260381571765    0.92150120365600   -2.52310748985326
N         3.97157191110504    0.18238597088873   -1.67298505181154
H         3.39393715347782   -1.85092913065028   -0.15673169692680
H         1.64404385953775   -1.58850361057705   -0.19256786308512
H         2.45509753548300   -1.87316415228202    1.31870110144201
H         3.94564649192863    0.16888165432659    0.95717707972795
H         2.19727686121274    0.57151537231414    1.17112580614745
H         0.72753980025782    0.78812281384288   -0.62082832403199
H         1.41547833549742   -0.02543494067000   -2.16921797308390
H         0.87662458499348    2.96956125946485   -1.69998384964716
H         0.06747021711775    1.82031646804511   -2.77300723150814
H         3.28884354666904    3.69307319826814   -3.87420477411668
H         2.95977586565216    4.32334297834977   -1.42103532707690
H         4.58836025174089    3.71839432873465   -1.93988472397737
H         0.88160171635285    4.06831378779812    1.88315076186531
H         6.19939555190347    3.25726332485696    1.90844671645478
H         3.70339980341377    1.20325269313685   -4.30704833392244
H         6.32726331251165    2.20227589933305   -4.30507849038460
H         5.10500061181602    2.76412916491711   -5.23602594003499
H         5.58846332322139    1.52664898885186   -1.91178753051551
H         5.51531790817718    0.21851244168660   -3.09343510281090
H         3.46176314549016   -0.52392852632221   -2.24460371214548
