37
 energy: -49.854293446409 gnorm: 0.316693782078 xtb: 6.4.1 (79825abcba525fcdf90b791dcacef51065a7a4e7)
C         2.59664226440623   -1.34386202485675    0.34376624658155
C         3.01641165957190    0.11093231448116    0.46789667223479
C         2.91121671525222    0.94716988726975   -0.87505135037895
C         1.23896092330657    0.84470922486294   -1.34530714258232
C         0.94290142379249    1.68071171789351   -2.57969358670118
O         2.01724634637535    1.82655753385648   -3.42336050042798
C         3.07751335038113    2.71926914000070   -3.18801092959028
C         3.09660282413651    3.37325773997082   -1.81644914217791
C         3.24834145107741    2.39803758980469   -0.56099501224337
C         2.28327300480385    2.92578016939931    0.48806482225103
C         1.92247899829108    3.59022961151579    1.55031251701036
C         4.58670331165891    2.55259673553381    0.14278830436418
C         5.84757199636632    2.82638905283751    0.33062927689690
C         4.45668570392206    1.98839921951103   -3.54406480755345
N         5.49670688384708    3.11240659918396   -3.77690122881306
C         4.83922042894601    1.00027610968917   -2.46846212816027
N         3.74583792604875    0.24452185484340   -1.87630550618320
H         2.99414352470743   -1.77392942052488   -0.57325645220904
H         1.51543871372528   -1.52883579819797    0.37790688684777
H         2.98629700693109   -1.89790171611577    1.20893964561671
H         4.04847178642901    0.14731954233280    0.83322005817911
H         2.37389512109003    0.65573345333390    1.16885019181045
H         0.75807818455476    1.15141468962698   -0.41990551802438
H         1.13989554845935   -0.26548899717144   -1.54433239543689
H         0.38503359625934    2.57681424094487   -2.24891630294574
H         0.20024839111429    1.17527040635118   -3.22615110598378
H         3.08129762251879    3.55993510124401   -3.88706517116724
H         2.15779722888263    3.96066489662967   -1.59768522880452
H         3.93484229046609    4.16603367434563   -1.86624085323747
H         1.24788553649194    3.85755787030836    2.33150490608412
H         6.72839542992624    3.07785885256723    0.88056345634171
H         4.35438764367242    1.45163978091446   -4.49025389103132
H         5.74750524027343    3.55742697846255   -2.89382552349582
H         6.37193649928830    2.79090628507865   -4.19746832092033
H         5.41239110679142    1.42639023844932   -1.62345413285443
H         5.48652569516636    0.23185260738911   -2.91316522007580
H         3.14339016946133   -0.15316849734707   -2.62759248442582
