37
 energy: -49.853902495556 gnorm: 0.319583513296 xtb: 6.4.1 (79825abcba525fcdf90b791dcacef51065a7a4e7)
C         2.63504631921084   -1.28131521755974    0.53109400075570
C         2.75584368673542    0.23300374903726    0.54804512989649
C         3.03367755566119    0.98841051275398   -0.81798474107062
C         1.57900488022857    0.85837402258163   -1.76407989987502
C         1.07918146312052    2.17305315129037   -2.34032345012701
O         1.82533002151493    2.60085206535353   -3.41154345272812
C         3.18464572867330    2.84724233815777   -3.15069446617654
C         3.48541635712308    3.43907998325190   -1.79873036033064
C         3.27628904034093    2.48816592603487   -0.53292143728090
C         2.14629639662617    3.01422150752608    0.33700842512005
C         1.46421613268205    3.63890312523583    1.25601599575972
C         4.49695825637895    2.61040161802245    0.36454002515916
C         5.59645576864815    2.39575420786075    1.03167417503998
C         4.17458833032094    1.66083412509056   -3.56744087433612
N         5.22154096193939    2.27380692019094   -4.53045903769332
C         4.96799642765080    1.09570579222079   -2.41384875473175
N         4.24924655576585    0.36033826436968   -1.38431853325658
H         3.56863686990710   -1.80647822381893    0.34002242428565
H         1.91063005997751   -1.72217627833830   -0.16550100824683
H         2.29990711571249   -1.62802162890562    1.51840964777495
H         3.58843482150839    0.49452904670053    1.21010995532064
H         1.83735891067006    0.61245056353722    1.00997310131154
H         0.88261107070271    0.41442957801418   -1.05723224341655
H         1.72785462228553    0.07488132728806   -2.56778882891881
H         0.94348548930476    2.94248448683977   -1.55725775759633
H         0.12945794585985    1.90881783096301   -2.84343050319932
H         3.46896673833620    3.61566871206588   -3.87463706275186
H         2.89609754457519    4.38227134930954   -1.60545815395252
H         4.57235121253285    3.81989777325196   -1.88339872265629
H         0.68138078542596    3.81008290264327    1.95934277576292
H         6.55000359973288    2.57214215287225    1.48016991175795
H         3.55772700487933    0.86701298370442   -3.99543558272916
H         5.98863949189695    1.65180301299449   -4.78626490090996
H         4.75182310335280    2.37463543060166   -5.43348990953736
H         5.59656286147438    1.78273283855982   -1.81632514458915
H         5.67786147595791    0.34440452313245   -2.78651166244353
H         3.97370055424792   -0.55547015545732   -1.79772194220321
