37
 energy: -49.853106059710 gnorm: 0.318903916720 xtb: 6.4.1 (79825abcba525fcdf90b791dcacef51065a7a4e7)
C         2.70834601748427   -1.35566981456635    0.31256670854124
C         2.96122801542838    0.12255226223883    0.55536593497877
C         2.97173117022591    1.00727147323088   -0.76032029187647
C         1.34272026428771    0.85340982176443   -1.35254338492164
C         1.05439840834883    1.98671525819273   -2.32349682584728
O         1.94950633164692    2.07636171964352   -3.36176807836066
C         3.15732506000257    2.76947400660924   -3.16874261581903
C         3.36749632319611    3.41636449702015   -1.78210289358305
C         3.23996267313225    2.49914904004772   -0.48106677736781
C         2.15006900125198    2.98956476038167    0.45809242780523
C         1.09253003031456    3.51424974829538    1.01158363063111
C         4.59777923604602    2.52482231619675    0.20163889474767
C         5.82111474986980    2.44039673371204    0.64476279108657
C         4.35308625956574    1.91029177155639   -3.57542216570035
N         5.43909280843620    2.94258160106029   -3.96812679657580
C         4.90019911286634    1.01527758328832   -2.48948554294256
N         3.95751681377266    0.32038653719383   -1.62590244125136
H         3.21026819057200   -1.82389188023654   -0.53167145470496
H         1.64005320076043   -1.48678109139497    0.09822518427731
H         2.96299993133232   -1.90238649894631    1.23102632087134
H         3.95260407378377    0.20237050056619    1.01442570445165
H         2.23541812135135    0.58000595621207    1.23720736473231
H         0.67223539366822    0.94519771041957   -0.50183213005070
H         1.22247982404389   -0.13721382210192   -1.88749396660191
H         0.85057475415217    2.92308667349266   -1.77096235000269
H         0.13869579694835    1.70463315388630   -2.87741936971306
H         3.15016821035980    3.60173618701305   -3.87775520694308
H         2.67774706766965    4.29342256305680   -1.61100094843824
H         4.42590051824298    3.86169410910932   -1.90490516536504
H         0.42268333055831    3.76867729757550    1.80112418437713
H         6.85769169439045    2.40865089983219    0.90169671318783
H         4.04350588388567    1.39671172638932   -4.48879224294068
H         6.33469548032871    2.67310735845817   -3.56064042677608
H         5.59939763379507    2.81894377218449   -4.97076434870375
H         5.61120846747808    1.57853073575214   -1.85596524114389
H         5.46846134469684    0.21888724040901   -2.98956562077100
H         3.36307567442050   -0.36818297431252   -2.13388354234402
