37
 energy: -49.853366791699 gnorm: 0.318168049787 xtb: 6.4.1 (79825abcba525fcdf90b791dcacef51065a7a4e7)
C         2.52907278355681   -1.34285255460040    0.27318414450999
C         2.82449356671445    0.12011250523277    0.55691125312050
C         3.10916805182165    0.95317383485003   -0.76173877804150
C         1.58587034163235    0.89564616769866   -1.60098414441571
C         1.10265420782749    2.12817199834102   -2.34773948191164
O         1.84643403030510    2.51399709923544   -3.43640492334336
C         3.17372747622642    2.82969823270351   -3.09711971171010
C         3.48444955605036    3.41288372420644   -1.69480687216446
C         3.33164084898150    2.47076191567555   -0.41445536301105
C         2.21556673801172    2.94347483552687    0.50277791033710
C         1.28420922705148    3.60933967844890    1.12666305931181
C         4.64741074081984    2.51861832936739    0.34506507923381
C         5.58477664706056    2.65754517197983    1.24065469144810
C         4.15655906616740    1.73427486192259   -3.56665433219261
N         5.20850448150839    2.35022149138033   -4.52230596129002
C         4.99670208346595    1.09549391367992   -2.48695074753420
N         4.23658860280691    0.34138196822513   -1.50163763653477
H         3.32512938075911   -1.75893037309701   -0.34087529064127
H         1.55441723086896   -1.55729334306141   -0.18337220475066
H         2.47067270259600   -1.90646023611649    1.21459352420203
H         3.76828529669324    0.17367550166300    1.11037442987530
H         1.97961485703197    0.59915412144035    1.06452401463351
H         0.85788437290514    0.65327571565906   -0.83093374951207
H         1.74031303190262    0.09549198049765   -2.38702856059388
H         1.01942512031152    2.91333598336939   -1.57300062785426
H         0.10686080634766    1.84934433628035   -2.74215348663411
H         3.38711288239359    3.72641410856614   -3.68514838295767
H         2.83663064330370    4.31081200579844   -1.47499736726153
H         4.56899074782832    3.78482433082681   -1.83282457768734
H         0.41475321831491    3.85758852023091    1.69165953684659
H         6.58027098447011    2.76688565427519    1.61287811648859
H         3.60532581400136    0.93102319398104   -4.06140480409715
H         6.00226560918504    1.70975910637571   -4.54504052710063
H         4.79161650284394    2.44954900547625   -5.45107098479561
H         5.55124565753308    1.87488275867496   -1.93091941600397
H         5.77468851955036    0.48273688359398   -2.96287674381216
H         3.82108916892942   -0.44692399963126   -2.04151443810776
