37
 energy: -49.858236741184 gnorm: 0.321590184101 xtb: 6.4.1 (79825abcba525fcdf90b791dcacef51065a7a4e7)
C         2.97038778019766   -1.43518427062827    0.30352200744037
C         2.97306464452036    0.06990883064755    0.51023163098850
C         2.94323904119341    0.93274801490005   -0.81961333049107
C         1.33336108465685    0.92240773373348   -1.48011630172098
C         1.01735102663296    2.11538743228668   -2.36735830441042
O         1.91485291181360    2.25019441410779   -3.39865812499232
C         3.15460538988190    2.86160798716094   -3.14238329614071
C         3.32423403410114    3.41309569564876   -1.74617601936031
C         3.27276798467966    2.39687480854133   -0.51536719067207
C         2.18803516082879    2.88182770657238    0.43256273767262
C         1.37122130515946    3.20455835238403    1.39625126582723
C         4.62846635790421    2.60287201833860    0.14042170044950
C         5.62620402450487    2.77645995411191    0.96165431708425
C         4.26354219407044    1.89021458702905   -3.59259712584477
N         5.42099138549919    2.65529970580645   -4.28122298484236
C         4.81361470938481    1.00176848547415   -2.50276917033456
N         3.79953096970622    0.22894526091587   -1.80157184505324
H         3.65029317385594   -1.67878539718165   -0.51028570554198
H         1.96216264404902   -1.77362367903695    0.03274010282472
H         3.20058208555070   -1.94509100066740    1.24920774632883
H         3.85860428096663    0.39046845685522    1.06969064692794
H         2.16805642823841    0.48853473050753    1.12479305792025
H         0.58633269529655    0.92343149804150   -0.69041246180353
H         1.31523425694084   -0.03185157833413   -2.08923507136577
H         0.98458981472174    2.97530358141934   -1.67230379155381
H         0.01619969460443    1.97295719016961   -2.81715982418881
H         3.24670361816714    3.70615275420022   -3.83062196449037
H         2.55211609798460    4.20987971473184   -1.53825804841363
H         4.32800647485209    3.98278072687346   -1.70721247438991
H         0.59099766253882    3.59426179195264    2.00959009841939
H         6.63430549746749    2.91575505525217    1.28698939098153
H         3.90344886958760    1.32815219267535   -4.45762199965554
H         5.81344080714627    3.36828300625565   -3.66607753892892
H         6.14231844741584    1.94638745719202   -4.43418279724461
H         5.29691528214198    1.65917517549137   -1.75552530841015
H         5.59710574809542    0.33475021847207   -2.88808469083066
H         3.26089971673231   -0.30073584427958   -2.51910047828591
