37
 energy: -49.846583965371 gnorm: 0.319392130360 xtb: 6.4.1 (79825abcba525fcdf90b791dcacef51065a7a4e7)
C         2.79997677854704   -1.42287852548394    0.26348622410481
C         2.84589952083074    0.07488814119556    0.51374087644671
C         2.95476916637685    0.91545268463560   -0.82620960543534
C         1.34042729246722    0.83373362106649   -1.47064768555028
C         1.06414503285671    2.02185917518782   -2.37744814274499
O         1.93276867442327    2.20554973151084   -3.42578617248037
C         3.17590390425793    2.83387923996182   -3.23524383839911
C         3.38096142656233    3.36670787854639   -1.76606767014392
C         3.32058730504008    2.38194245776527   -0.51034632360888
C         2.41010176273156    3.01646310167724    0.52830447127803
C         1.41481138461139    3.28628609861458    1.32619433564249
C         4.64121742169494    2.58526847666496    0.21422713673383
C         5.41192833408934    2.89629442703782    1.21886830935660
C         4.24926191711500    1.87692727952672   -3.65984596230108
N         5.28882007031053    2.66907476020963   -4.49115255922922
C         4.87716325935330    1.12113247487835   -2.51347981786323
N         4.04412403487000    0.31759536422337   -1.63162210944010
H         1.99776475939553   -1.78860145165900   -0.37416451440712
H         2.66976787857440   -2.00808168800982    1.18270594700979
H         3.72482409508858   -1.77908266480605   -0.21095224435847
H         3.55931598144017    0.35866208157319    1.29504914874340
H         1.89956313053351    0.40702046687022    0.95545025394680
H         0.71334363428666    0.80072453906529   -0.58331398104501
H         1.24331099050909   -0.11290201261495   -2.08417396257433
H         1.05004868405723    2.92796278457710   -1.74309225045138
H         0.08177091697141    1.93120292582520   -2.87907979175211
H         3.15424420283337    3.66034925663584   -3.95070773031719
H         2.58335681146110    4.16055677462198   -1.67723313913694
H         4.39056817293549    3.92695101669178   -1.74508782948438
H         0.84655400538652    3.43539001804013    2.21594364173655
H         6.31482626714699    3.10331689948114    1.75125131199551
H         3.88240913751538    1.12013765757406   -4.35736863277946
H         5.70694277045822    3.37349389927626   -3.88309603308936
H         6.03147933926091    2.12336863788277   -4.93491831830509
H         5.38366969657009    1.83444364393746   -1.83615065585890
H         5.66397096158356    0.44946721669110   -2.88366767138403
H         3.72405869897556   -0.49892089045310   -2.19410982099380
