37
 energy: -49.849462772582 gnorm: 0.337778343231 xtb: 6.4.1 (79825abcba525fcdf90b791dcacef51065a7a4e7)
C         2.63694135310496   -1.28532334328208    0.41990412384413
C         2.86854773856130    0.20182242465108    0.62677902497221
C         3.01617352212543    1.04609115683023   -0.70711961509101
C         1.45621855048969    0.98236196789962   -1.47559681598948
C         1.10337095403112    2.10409066897514   -2.43865682663988
O         1.87589755104113    2.30107067484209   -3.55743446780737
C         3.17264878009436    2.73828195022963   -3.23529769139787
C         3.44868005564878    3.37305435998344   -1.81593670367269
C         3.35493835977144    2.47770927850180   -0.49691673214181
C         2.22774106169424    2.97976560245975    0.39064256625828
C         1.29511353405769    3.58479883027363    1.07194734579325
C         4.63933764962378    2.60589800286321    0.30576508390588
C         5.76139514928730    2.44804984686639    0.95082879440781
C         4.21473723658295    1.70357473118010   -3.57416123708019
N         5.36761133783228    2.46867828700703   -4.27039919850249
C         4.90071627081690    1.03132493003076   -2.40919162823517
N         4.04077776767744    0.31041002680099   -1.48286191933064
H         3.48965499520422   -1.73691233027509   -0.08293051925335
H         1.72871759077736   -1.53175850430588   -0.14470309108413
H         2.42824072211762   -1.78979115171565    1.37346171789616
H         3.77586451217351    0.32520652287812    1.22801604047967
H         2.05853970080737    0.53575458482793    1.28507068598746
H         0.73846594559295    0.87465762616604   -0.66632826333428
H         1.37379714999942   -0.00037591823618   -2.03183242432115
H         0.94706863428089    3.03265071085458   -1.85816075443284
H         0.09668784882316    1.79156963000283   -2.77604606264891
H         3.38635416443560    3.61990781324768   -3.84560602180095
H         2.77632837599176    4.26456643082670   -1.65037641842544
H         4.55412817394246    3.69813500643219   -1.89291291315201
H         0.50190362178711    3.99231417741694    1.65637144624220
H         6.70419626001580    2.50672852212614    1.45002563222486
H         3.81431925239804    0.98233548063431   -4.29063088138446
H         6.10989129988788    1.93240214792231   -4.72005908717166
H         4.98457822440042    3.10366349609325   -4.97491706836498
H         5.37391273106332    1.79174770176399   -1.75959274651479
H         5.57372808149410    0.26193858811401   -2.81210524944106
H         3.53992578277612   -0.49564471818397   -1.91292711985116
