37
 energy: -49.852843014070 gnorm: 0.329598153791 xtb: 6.4.1 (79825abcba525fcdf90b791dcacef51065a7a4e7)
C         2.59391387225082   -1.25396022312294    0.35735577626768
C         3.04111648692470    0.18535449174415    0.54820715974218
C         2.97697183311480    1.01418336727836   -0.80190276338620
C         1.33688801931876    0.99703944818880   -1.38320242887583
C         1.02688436846624    2.13333476732033   -2.34392714148842
O         1.91260323375668    2.24147333695967   -3.38847011216684
C         3.23707746228391    2.65587101363430   -3.16367657217697
C         3.52533234849841    3.36430536961226   -1.81166787991564
C         3.33053929816716    2.44451906474886   -0.52081823264742
C         2.25724469666561    3.09787705793479    0.33449328424579
C         1.32348257931162    3.72351465652091    0.99532714517500
C         4.59072136010875    2.47622053610390    0.32850392919385
C         5.61446827380885    2.74673577577666    1.08929298487871
C         4.29781481913481    1.64609836290510   -3.59628911679529
N         5.44708716490627    2.45063097801164   -4.25290909050085
C         4.92501309533065    0.93636140650133   -2.42047578333939
N         3.90462934510625    0.23646796010778   -1.65479607063762
H         3.28756771759335   -1.70796611894325   -0.34735610549352
H         1.56224996179712   -1.32966687103525   -0.00914125990317
H         2.65443151944788   -1.76945823824229    1.32581600729381
H         4.10272514115927    0.16929814500571    0.81776711813863
H         2.39072490509442    0.61313941831302    1.31954526114091
H         0.71698827771849    1.11611057186824   -0.49819904173877
H         1.08164068819425    0.02107118709776   -1.89730343584605
H         0.88896298338085    3.06799573360624   -1.76858687172335
H         0.05024540633726    1.88910947189913   -2.80375549360268
H         3.31711097311655    3.47663639752704   -3.88155485820134
H         2.85330512736414    4.26296765325440   -1.68900462759330
H         4.57506615934490    3.84247296938494   -1.75659543188673
H         0.60832145989793    4.21614346003198    1.61392528498011
H         6.54180427709736    2.65850165566539    1.61253027833618
H         3.92319579203739    0.86657068863450   -4.26400654159243
H         6.02723934750517    1.65255685345293   -4.51226751360508
H         5.05119104338364    2.86347424213492   -5.10090243418372
H         5.49544168843227    1.55170182793719   -1.69929357695522
H         5.61022712789498    0.19010763576900   -2.84571297107355
H         3.32682160649984   -0.45950973163666   -2.17179346829630
