37
 energy: -49.855145245839 gnorm: 0.329581411671 xtb: 6.4.1 (79825abcba525fcdf90b791dcacef51065a7a4e7)
C         2.74516756947828   -1.39820594703095    0.37910905036051
C         2.95088822465934    0.09776803585548    0.54578877925147
C         3.10193506513169    0.90768210489557   -0.80886715442082
C         1.69695354159136    0.66110152484658   -1.80551306303468
C         1.09449782947467    1.91654538431895   -2.41474956860514
O         1.81427451169126    2.53199384781913   -3.40994130520137
C         3.09506050519560    2.97768300686098   -3.03921503904860
C         3.21164111982696    3.50928649598770   -1.61470929080326
C         3.19125373887411    2.39915578251460   -0.46691219646856
C         2.11083825720898    2.86796283572045    0.49398227788239
C         1.31943207216937    3.27527778561360    1.44677096428782
C         4.46155361948688    2.52223879781211    0.35867896871556
C         5.67402266587523    2.42277550181949    0.82778678114088
C         4.18612924729661    1.93918680852649   -3.51804337262644
N         4.98771276006590    2.62126368471682   -4.65447834672798
C         5.01699458748416    1.34277594506012   -2.40736876304206
N         4.28508560984987    0.41940729395356   -1.55355447472305
H         1.84906475365906   -1.56527583802312   -0.21501487767664
H         2.53624048459268   -1.81867828816767    1.37104376681238
H         3.61133643059058   -1.88740341842389   -0.08753122466823
H         3.87997694670980    0.26604907658853    1.10113457244248
H         2.15774277449328    0.62545761666671    1.08748576180603
H         0.92373173890535    0.06855740498601   -1.32311890143763
H         2.08595992924018    0.03741964575546   -2.66670992557978
H         0.78408630943587    2.56353715773114   -1.57292049470159
H         0.14314189718504    1.59795496177908   -2.88201159722410
H         3.24219553747991    3.83901212262185   -3.69638613428253
H         2.32962139777981    4.17294217496224   -1.37835549798095
H         4.13334114604160    4.20199816707920   -1.54961007914461
H         0.63629245958418    3.66463206735806    2.16685831030377
H         6.62054206806333    2.42878287749770    1.32334659991044
H         3.61210075866019    1.20860093094627   -4.09300853632753
H         5.70336903255729    3.21375374398685   -4.23310287971730
H         5.52886565618270    1.93252620063513   -5.18273986504318
H         5.54313675485953    2.16109004178467   -1.88042204123240
H         5.87292117386521    0.77788564320211   -2.80173946697612
H         4.20513479189031   -0.51710656264797   -2.00309057162248
