37
 energy: -49.852994396245 gnorm: 0.311038314123 xtb: 6.4.1 (79825abcba525fcdf90b791dcacef51065a7a4e7)
C         3.08749656136374   -1.29973710573157    0.42714547358089
C         2.74046835961903    0.17752068037975    0.50009845936039
C         3.00799987629430    0.92613166567556   -0.87171680747562
C         1.64276125420544    0.67793767650825   -1.92176508247157
C         1.01094771302268    1.97617489186143   -2.39679463006165
O         1.72325172315858    2.59112737451394   -3.39765341999573
C         3.05482361404643    2.93933022747894   -3.11101667309866
C         3.28858842889726    3.49041810338791   -1.71716544227523
C         3.25160937603689    2.43885405183807   -0.51587879888085
C         2.19763148121020    2.91975082473929    0.46812565447681
C         1.74966823766593    3.57792378353209    1.50068212813301
C         4.48406611396521    2.39146001906411    0.37249963859197
C         5.52296730672092    2.48567506024277    1.15470425827007
C         4.05864368961888    1.85997152024550   -3.55195748541329
N         5.00882595769670    2.50891756707090   -4.58891077709319
C         4.86699022784527    1.14318419115476   -2.49723808241777
N         4.21129704142156    0.32348215318005   -1.48954057290808
H         4.16910774765135   -1.32641100982390    0.31181294811974
H         2.64124872441357   -1.74889875127596   -0.46923540661383
H         2.78727884847440   -1.86106504589105    1.32274364059147
H         3.33588864327870    0.60828405500968    1.31241053797441
H         1.68618975490384    0.42709577709748    0.66496359976095
H         0.91601164072577    0.03096003536249   -1.43705945166838
H         2.04831157086857   -0.00047754869219   -2.73247268385349
H         0.95656838192298    2.65157455342920   -1.52243312480359
H        -0.01785059255407    1.83834956173568   -2.78083889247146
H         3.26814634238953    3.72436724060199   -3.84151014562038
H         2.58688407523328    4.36148187751736   -1.56511391593372
H         4.30693905245281    4.03487059702564   -1.70484473823390
H         1.02600948953714    4.04204360639439    2.13132711121856
H         6.19087837630028    2.22684271915774    1.94743073247367
H         3.49282247496537    1.15846597303015   -4.16968371123142
H         5.78957533902159    2.91484117594589   -4.07274986980150
H         5.37730396900773    1.74287930727814   -5.15783550885612
H         5.48278042017842    1.90434333804965   -1.98189782491301
H         5.65728484530085    0.52551424912103   -2.94574436655344
H         3.92077937248986   -0.58134430675937   -1.91664899101041
