37
 energy: -49.700927276090 gnorm: 0.339973199725 xtb: 6.4.1 (79825abcba525fcdf90b791dcacef51065a7a4e7)
C         2.27166775299882   -1.18014691364627    0.79327010684386
C         3.26226696525218   -0.08358047753453    0.44071297540850
C         2.85261064672786    0.84598557636914   -0.77664371047270
C         1.26978937131211    0.60287546907533   -1.45756398455151
C         0.96956400811056    1.81933481744587   -2.31800147539224
O         1.95771896803415    1.96703039306757   -3.26086820450783
C         2.89348745710514    3.01600324742834   -3.23889462915149
C         3.08045832109823    3.41800800741451   -1.70325033636837
C         3.37597341063431    2.29558114833995   -0.60640359912466
C         2.69803540992312    3.07075117761911    0.51158892783496
C         2.21264988881087    3.49076843645925    1.64649943898194
C         4.78071149723980    2.11898903073098   -0.05328691521335
C         6.08311634106156    2.06156126343793   -0.03138037361800
C         4.31397904755535    2.35859198312429   -3.67771246273114
N         5.67445271917724    3.07434012067098   -3.48780344029189
C         4.49659243921826    1.06829041155509   -2.91520644485652
N         3.67671509407132    0.39314066754661   -1.92058429429978
H         2.19343972510800   -1.84840858015099   -0.06183372778736
H         1.30197734374394   -0.71314160278135    1.00771951438482
H         2.71746817481481   -1.67185404664830    1.66894235599491
H         4.19575743137512   -0.57008193570001    0.13765325559393
H         3.46392802238665    0.47699002109275    1.36053097633558
H         0.43669441099224    0.26056125673797   -0.84891105750558
H         1.39880680041841   -0.18780964179791   -2.25764938700358
H         1.12027086329675    2.70401651907990   -1.67127464944128
H         0.01607099058636    1.93736669531147   -2.86739324146971
H         2.54318893001728    3.82082348537876   -3.89078859166498
H         2.18535880913784    3.81583673227325   -1.14218889286571
H         3.89547774095493    4.12415639613925   -1.29007227262879
H         1.41016799946026    4.02973804879917    2.09631810021634
H         6.77427145509564    1.99674292622489    0.78078820404690
H         4.13696408857543    2.41061375792082   -4.75465666290739
H         6.30663800601340    2.96499311992335   -4.28099361401436
H         5.56336790267744    4.06117653970981   -3.24269110571887
H         5.29376407745959    1.45807624552243   -2.25435792004145
H         4.46609513920321    0.48553218689124   -3.84617496961031
H         3.01541876903903   -0.20226498422896   -2.46253661760411
