37
 energy: -49.853942033933 gnorm: 0.328405183913 xtb: 6.4.1 (79825abcba525fcdf90b791dcacef51065a7a4e7)
C         2.79371018551150   -1.38059662882747    0.31641976197103
C         3.19548317081358    0.07593623173918    0.47494979666337
C         2.95032580304660    0.89081941901893   -0.86285882272263
C         1.28188120472466    0.79489914817812   -1.34780217532661
C         0.99641701062918    1.82212803469754   -2.43111759466627
O         2.01141354337372    1.85243927452549   -3.35638790295413
C         3.11037905362056    2.71100963658536   -3.17856413413737
C         3.35670123089543    3.34075398098444   -1.79538553676575
C         3.23290009915144    2.36199479831273   -0.53961973365760
C         2.18330745204274    2.90760185106745    0.41487698977898
C         1.53151626050139    3.59749147905862    1.30888820605971
C         4.52467878287862    2.53775682846880    0.24193480838417
C         5.48426813964162    2.71939079385691    1.10578294735200
C         4.34745798013356    1.94637996149490   -3.64563874155960
N         5.29086127740383    3.01977869714031   -4.24317938149657
C         4.86726584851726    1.10948389885474   -2.50150326866731
N         3.80320745687852    0.30397673607323   -1.92164362504261
H         1.79441117517693   -1.52746783871151   -0.08821115939463
H         2.94293608617236   -1.92743171674782    1.25614579405094
H         3.47042474447713   -1.89602508358164   -0.37907051257732
H         4.28091743809363    0.19201273274404    0.56601026827594
H         2.66795102392181    0.51444262676002    1.32958047436754
H         0.73962098175311    0.90058225156102   -0.41160265087415
H         1.18142491737785   -0.24366590331875   -1.78741138836249
H         0.97338271831153    2.81442604726417   -1.94281038399729
H         0.02397510832038    1.75339386043878   -2.95508718402117
H         3.02692575642385    3.55651205405783   -3.86672953651457
H         2.66844851057815    4.21264717879332   -1.59445966609464
H         4.41313737596470    3.80486427120345   -1.74888161294181
H         0.91100001512636    4.09671047172220    2.01779032361945
H         6.29832113499831    3.13592228615796    1.65835314612828
H         4.05871817536207    1.34390933538247   -4.51022409858754
H         5.51314084179851    3.60838521745718   -3.44012283654658
H         6.16409993505392    2.53920966748305   -4.47290457648643
H         5.38391089939775    1.63324180849196   -1.67513051237234
H         5.52068741343447    0.33952938589138   -2.93445815434840
H         3.20292190040230   -0.13404522810374   -2.65193606574272
