37
 energy: -49.850335510055 gnorm: 0.319622802130 xtb: 6.4.1 (79825abcba525fcdf90b791dcacef51065a7a4e7)
C         2.73971776279193   -1.39288758775914    0.18793190624712
C         2.96364311813798    0.07992713711212    0.48578337764971
C         2.90749479335310    0.96514005073476   -0.82841375720161
C         1.32090864944251    0.77834610786313   -1.51829096526974
C         0.94993722436781    1.80830538938175   -2.57272226670886
O         1.96561195565971    1.98644521170756   -3.48042977471779
C         3.11078471657131    2.72866714760866   -3.14253112478827
C         3.09029269996253    3.41774599516937   -1.74730121824188
C         3.26637549144338    2.44251240614680   -0.49503994297929
C         2.35030835131526    2.96010160772374    0.60191868989109
C         1.65530948545388    3.48423457811794    1.57263837110187
C         4.66711019676641    2.63301828394740    0.06358494800494
C         5.73308677465923    3.04665957696865    0.69018775384847
C         4.35873749480159    1.91686323382587   -3.52191574884642
N         5.39913646805516    2.97113301349001   -3.97505441584296
C         4.88004627999248    1.00535767538953   -2.43700285487926
N         3.90053655388643    0.25459178035407   -1.66615233513860
H         1.68178319201601   -1.59521352764260    0.03387183711327
H         3.00999091537964   -1.96266203360675    1.08609197107065
H         3.33811330134728   -1.76999930419984   -0.65291608301928
H         3.90857591655799    0.16481656480422    1.03334990668915
H         2.22197716246523    0.54029153553689    1.14832986707359
H         0.51116580471776    0.70960960810681   -0.79629620324069
H         1.38189169958818   -0.25058034493044   -1.98685954554352
H         0.66728375024567    2.72405455996178   -2.02032718478629
H         0.06883521226240    1.38516054892166   -3.09187490220350
H         3.16110926272354    3.60518030628491   -3.79414645189440
H         2.20250963293073    4.09409474283566   -1.57802523635800
H         4.04231923856861    4.06938966441750   -1.79852917705514
H         0.91433634335694    3.61110249859255    2.32872407929844
H         6.74434277281847    3.23513176350331    0.97889892311255
H         4.03690375052521    1.36061125184714   -4.40557639829327
H         5.90225944623092    3.32969407456859   -3.16322506850003
H         6.04734945577850    2.46299797927035   -4.58158942739890
H         5.50463044623435    1.54599472456437   -1.70097120527139
H         5.52039540560880    0.28797888134140   -2.96856685832459
H         3.42107202850602   -0.34123698014191   -2.37370791348985
