37
 energy: -49.852845420523 gnorm: 0.328102975222 xtb: 6.4.1 (79825abcba525fcdf90b791dcacef51065a7a4e7)
C         2.79349277352528   -1.37195502003118    0.37643443679999
C         2.78349383945344    0.13646330622101    0.55703192266295
C         2.97774651277592    0.94881720262228   -0.79063854593854
C         1.53415327431415    0.87722394981302   -1.75965407693970
C         1.11953565167926    2.19338177420780   -2.39689978896479
O         1.92380987419929    2.68385296214433   -3.39682121834807
C         3.27333749834392    2.93380699015259   -3.09221043778957
C         3.39824763086327    3.45240882385729   -1.72760837579810
C         3.28301685027106    2.42335123978256   -0.51187551495262
C         2.16106875777041    3.05082243453072    0.29923992991338
C         1.43705303955987    3.41448459640368    1.32080078108744
C         4.60217786940437    2.51961991952588    0.23709608906831
C         5.60325667737750    2.69037920106705    1.05484836907144
C         4.19450826945899    1.73456221033500   -3.52259768016357
N         5.27105225630236    2.26222941717650   -4.50334729479700
C         4.91100467275289    1.03751755008458   -2.39104880108134
N         4.07735034674884    0.25052597616622   -1.49496622465591
H         3.74849134362200   -1.78462822609174    0.05772704278856
H         1.94635563657030   -1.72685060782192   -0.22422336190363
H         2.62778597223672   -1.78391966185614    1.38149274266190
H         3.65502915710284    0.35190295377488    1.18468251059278
H         1.90164116538451    0.50740129497099    1.09155272629081
H         0.75017527097368    0.66285747765259   -1.03777450023929
H         1.67328418560556   -0.02234509806600   -2.43299144384706
H         0.92214015419011    2.87827767904199   -1.55097870903214
H         0.14396336583342    2.01822771117903   -2.88933408911132
H         3.54598997376687    3.76615654881065   -3.74663022022550
H         2.58126123167099    4.22287857260420   -1.61284621126644
H         4.39548592903262    4.01252627334050   -1.56822666876980
H         0.64008359692775    3.89522041857313    1.84093064243124
H         6.44043577386396    2.88602605730254    1.68917323017753
H         3.58405724409005    0.97395785043807   -4.01522322063335
H         6.01913652487571    1.58326699274439   -4.64528252023323
H         4.73262849916599    2.56571543791075   -5.31837005746574
H         5.45483979912197    1.72851965661121   -1.71956102532905
H         5.56573479374482    0.29307124416736   -2.86472357648827
H         3.71966093317046   -0.61591127651694   -1.94980444859428
