37
 energy: -49.851313934091 gnorm: 0.328564660548 xtb: 6.4.1 (79825abcba525fcdf90b791dcacef51065a7a4e7)
C         2.72474352493106   -1.36789563881946    0.51566521101028
C         3.15356372868842    0.08909330748676    0.55224007622322
C         2.99480846731471    0.91486504586247   -0.79192005156892
C         1.36708644019260    0.76899284389937   -1.38968290963144
C         1.03830995655888    1.80659289155234   -2.45060395013845
O         1.97613429330877    1.99318500830802   -3.43697648196777
C         3.11179322760755    2.78605061654346   -3.19586973316547
C         3.13930509767909    3.36773254870911   -1.78319472004664
C         3.26157247057136    2.41086625219949   -0.51051975207086
C         2.22995082270816    2.81627261586271    0.52957555097978
C         1.33986855595828    3.33628946642290    1.32793106931679
C         4.64114470639634    2.54692348960153    0.11292297317628
C         5.75380585488390    2.80001403516192    0.74376890068803
C         4.38978067369144    2.03503834238432   -3.62972282039838
N         5.44779178193715    3.06519999961856   -4.09730051253443
C         4.84839426443513    1.03542660154008   -2.59527071322779
N         3.74602788760104    0.35102743477614   -1.93672275883944
H         1.80557127503561   -1.39920212657143   -0.06574525134813
H         2.58323623984790   -1.72649642373462    1.54316857524780
H         3.45448701071707   -2.03061730512417    0.03028881453548
H         4.22694513088981    0.23902618776420    0.71131807284026
H         2.62639234152515    0.59246806077465    1.37057729650179
H         0.75387378536640    0.93034235583444   -0.50672130664667
H         1.27356994388963   -0.25727869835327   -1.85871007149635
H         0.76178061323044    2.79458921560792   -2.03705269295508
H         0.12204847654665    1.50298524396911   -2.99208254368031
H         3.13674315659795    3.68098649579999   -3.82346648655148
H         2.30881534382493    4.10057675515939   -1.56527983135038
H         4.07798454459625    4.03621320677181   -1.70814265769797
H         0.61487975989405    3.61722301037066    2.05749932014853
H         6.72972609440989    2.64688732700562    1.15076582500546
H         4.14629471462507    1.52072664477309   -4.56248615331399
H         5.60255186851668    3.72844005897306   -3.33774301361321
H         6.32884979990313    2.57639672660080   -4.27357909876377
H         5.47711387173915    1.51212581797503   -1.81963813182845
H         5.40651541734203    0.22669470655951   -3.08689366560770
H         3.17691642340195   -0.19510345316414   -2.61744754459374
