37
 energy: -49.851719509569 gnorm: 0.322242547045 xtb: 6.4.1 (79825abcba525fcdf90b791dcacef51065a7a4e7)
C         2.67205501961271   -1.35823256581572    0.42234387223618
C         2.73664030963251    0.15261360522576    0.56799367578291
C         2.94785263132638    0.96782470428268   -0.77539341106348
C         1.45592681346086    0.90060800194178   -1.66854367842991
C         1.07545499750960    2.15786164885296   -2.43327615040974
O         1.87747742940140    2.59026361732152   -3.46140573003375
C         3.23241084131948    2.83857025258357   -3.18035623935085
C         3.53364474892410    3.40065613777466   -1.74196217408522
C         3.30158910940745    2.44169652704611   -0.48625892116454
C         2.24989392639257    3.08071491565993    0.40592299290127
C         1.46535242074108    3.62638306868619    1.29292715923211
C         4.59457168767304    2.54922084053907    0.30560378945627
C         5.55783725425290    2.70907118709403    1.16966604159672
C         4.19695104659051    1.69313269137501   -3.55793145597459
N         5.34725317121017    2.19901094028854   -4.46354818657875
C         4.86400932036407    0.95645369171161   -2.42127912088097
N         4.06227287916180    0.24902089495921   -1.43433597493703
H         3.66666956183478   -1.71997599860792    0.16979793957002
H         1.92208063376139   -1.71110840549953   -0.29696069503978
H         2.46595742729304   -1.72974519017546    1.43566413782825
H         3.67867103076312    0.37365313938443    1.08146515205978
H         1.99944104130237    0.65747562991029    1.20251963628225
H         0.61677099007795    0.67071370563478   -1.01689136782103
H         1.61536408691462    0.00790259527866   -2.34649788393158
H         0.92512100013029    2.98065242129710   -1.70936670142113
H         0.11274637375952    1.93329034594526   -2.93094230990085
H         3.51491550300412    3.68555542694851   -3.81140112073768
H         2.99293540710289    4.38877575258306   -1.66770723901372
H         4.62856484509786    3.75762923054542   -1.65629711275465
H         0.88330738564438    4.34032698039201    1.82987215684448
H         6.49669847878005    2.85703429604648    1.65768358042943
H         3.71681276616849    0.97261401418217   -4.22439183534588
H         5.74167522126460    1.35152805813707   -4.87216740515268
H         4.96022991091150    2.69836244022334   -5.26799028281479
H         5.50907817361493    1.70094165102653   -1.91753291309608
H         5.44869803160779    0.18356795899261   -2.93899176479393
H         3.68794497027853   -0.61313311688054   -1.88389366406859
