37
 energy: -49.852530220642 gnorm: 0.329622219954 xtb: 6.4.1 (79825abcba525fcdf90b791dcacef51065a7a4e7)
C         2.80906010030097   -1.33055411738086    0.40949083852593
C         3.10673103154203    0.15671149519384    0.49594482541492
C         3.08630612280388    0.92736697841252   -0.88953039819425
C         1.47327890709842    0.78648333359168   -1.52700442213008
C         1.02569081810531    2.00243340821066   -2.32160596235479
O         1.76566491948238    2.41480450900286   -3.40310967506243
C         3.08537456675482    2.83371423997102   -3.15944877082946
C         3.38761663296697    3.37423314932294   -1.75775443213111
C         3.27036916118354    2.35740796603531   -0.53196342871047
C         2.19106141496462    2.80001845045898    0.44250391107343
C         1.41386765687120    3.48023053698194    1.23831600337748
C         4.52338746216122    2.42754210353058    0.32561358768751
C         5.42294496042870    2.74135090865873    1.21575774034730
C         4.21591489510333    1.82633395644062   -3.65400458881965
N         5.17903015201195    2.52577585793246   -4.64518543595215
C         4.94149432959216    1.21148175894176   -2.48134416076753
N         4.08721900492371    0.27618598861439   -1.76528917120019
H         3.46217918626840   -1.77555816323685   -0.33837459428223
H         1.77515569151664   -1.61168102780381    0.17202224713891
H         3.04916808315385   -1.70890849776614    1.41274151890943
H         4.12377501387031    0.33174948836288    0.86325470971315
H         2.40041455511434    0.59126839852057    1.21235877882320
H         0.79525862712121    0.70794105487144   -0.68095227970020
H         1.37807090057792   -0.14882768298228   -2.15795119466053
H         0.86601509753441    2.78418902718105   -1.55545214438578
H        -0.00997922635761    1.78595299333080   -2.64631438479010
H         3.25202242705367    3.65083701764870   -3.86651967862381
H         2.72426413610672    4.24743689294567   -1.48991221791781
H         4.44694626486807    3.83142287391590   -1.80691327791105
H         0.74653565865308    3.87205140111489    1.97176449204111
H         6.30706471621106    2.80814159337828    1.81190023340375
H         3.71861347826721    0.99830884304525   -4.16480306393871
H         5.63721981652588    3.25277879869309   -4.09537218551705
H         5.93555709637054    1.92279552782609   -4.97737170095801
H         5.27856792343119    2.00787372516597   -1.79121546455854
H         5.83934725148868    0.66060053436994   -2.79380157165535
H         3.59952003248791   -0.39298752029461   -2.39765739195127
