37
 energy: -49.852773608698 gnorm: 0.317546296418 xtb: 6.4.1 (79825abcba525fcdf90b791dcacef51065a7a4e7)
C         2.44873351187750   -1.33264305148225    0.36257845888793
C         2.76968431296782    0.13687358404989    0.57600928698137
C         2.96037745477054    0.95133884213185   -0.77089498373127
C         1.45504060366723    0.87747995131440   -1.64071333215848
C         1.13122053656053    2.15227753171989   -2.40248297023588
O         1.95748344449002    2.59883034235374   -3.40505070857448
C         3.30147154703342    2.89060609526942   -3.11341319020531
C         3.64315283446436    3.37478409225841   -1.73131346695568
C         3.41921283921898    2.39563007591020   -0.48980135327403
C         2.40822238398580    3.09492692361478    0.40422223041774
C         1.45982048238953    3.68505678350508    1.07676669829514
C         4.67851677164007    2.41632909096762    0.36116115988446
C         5.45161281232769    3.05914284187026    1.19131135896024
C         4.10616595704978    1.59774230020764   -3.58638543296482
N         5.20414599517731    2.08129663352117   -4.56611217337330
C         4.89669020515471    0.99343222704703   -2.45081422502771
N         4.12468334454525    0.31033979195779   -1.42383351041111
H         3.24877484502016   -1.88389421885507   -0.12727035708447
H         1.53967934963223   -1.50476130342198   -0.22765694798326
H         2.34404583620750   -1.78955717828084    1.35635196401178
H         3.74263800966905    0.22806183257235    1.07096294076312
H         1.95315281064496    0.56043244330006    1.17169865067078
H         0.74161791093905    0.71547470166999   -0.83668163028600
H         1.49708795663930   -0.03319132067272   -2.31218555505111
H         1.03875254078065    2.91073231407508   -1.60259180954957
H         0.17378908698065    2.02937749527303   -2.94389997287548
H         3.57546203033291    3.67442130564541   -3.82473122231291
H         3.02397553030162    4.27592283042974   -1.45054806277537
H         4.74423408799050    3.72290189433790   -1.72407587502314
H         0.95131452146736    4.24300748604400    1.82970429550004
H         6.38262242942384    3.15366213017995    1.70687108579885
H         3.41263746256425    0.93533365413115   -4.10991421210219
H         5.74751162589751    1.23993284611282   -4.76008749002500
H         4.68083128879798    2.38300599157067   -5.39156913290143
H         5.40136483924538    1.83027370688173   -1.93203080199706
H         5.71912325221417    0.34867109990256   -2.79011733194160
H         3.88977306914221   -0.62021516382763   -1.82931800569572
