37
 energy: -49.833734274378 gnorm: 0.329095382199 xtb: 6.4.1 (79825abcba525fcdf90b791dcacef51065a7a4e7)
C         2.98508445749350   -1.37670759769826    0.36489476399593
C         2.98032362195322    0.12650734625260    0.58481166611048
C         2.85409004620374    0.81546916190100   -0.83760365511562
C         1.33003506222505    0.71933863685826   -1.67192580993012
C         1.02254880207715    2.02962745936696   -2.37822368598072
O         1.77842475717388    2.42777204823570   -3.45404630262233
C         3.08880800929586    2.84992185615797   -3.16913434407297
C         3.38658625163109    3.30517847670648   -1.70345842687284
C         3.24654796050441    2.25721460612282   -0.50662718665174
C         2.26901349802466    2.87899289418825    0.47735146944353
C         1.46499568257297    3.63350529014303    1.17326946960207
C         4.57911095412380    2.33716359599741    0.22021254975469
C         5.69229831233686    2.77621196098982    0.73798347078095
C         4.18008614066898    1.85512729670436   -3.57667007642584
N         5.26909860427813    2.79357861966304   -4.15339393738434
C         4.85323883261244    1.03365907125736   -2.50349878182909
N         3.95659676814517    0.26168134959967   -1.65651433020789
H         2.07416816989737   -1.70904524285997   -0.12874382176676
H         3.16521449596004   -1.85912136139184    1.33402433629121
H         3.79607844029056   -1.69026176639242   -0.30688522328949
H         3.83614528196083    0.53757234983308    1.13118897250379
H         2.05587793365123    0.53351618400524    1.00991823502211
H         0.53382381295783    0.45251033422332   -0.98161072223655
H         1.50090815598891   -0.16648074055706   -2.35609794326660
H         0.88257428629657    2.81640911591843   -1.61336316547124
H         0.04375267910451    1.96463199724244   -2.89071320774882
H         3.26508602842219    3.73839138107039   -3.78147279218084
H         2.73618760605240    4.14517456623951   -1.32181862267916
H         4.47002609935950    3.69860249594855   -1.77412627001473
H         0.59598532662394    3.95501066279790    1.70077072490368
H         6.48489717869579    2.96674786839422    1.42863367281173
H         3.89546782121349    1.16268407282334   -4.37251187202417
H         5.38624995321527    3.53133202594687   -3.45858379940626
H         6.18593134451453    2.34263487357779   -4.20169999256671
H         5.39767735896641    1.67747089750560   -1.78709846632791
H         5.63418025966695    0.32769522520394   -2.81811785608021
H         3.53749910168738   -0.48734455229786   -2.24714990599571
