37
 energy: -49.857681538286 gnorm: 0.334680980795 xtb: 6.4.1 (79825abcba525fcdf90b791dcacef51065a7a4e7)
C         2.83502596292078   -1.36109807704354    0.35425110795284
C         2.84924235177447    0.15087920301102    0.50177695808345
C         3.13016454819450    1.01564046224270   -0.79712231828297
C         1.75710656618212    0.67350396060864   -1.80990685786209
C         1.05592206756442    1.90320634076221   -2.36347134767471
O         1.75592934531774    2.61523154157342   -3.30701350394907
C         3.08408392363579    2.96761043505677   -3.00981982365396
C         3.33003593480884    3.47952304478844   -1.64687810871434
C         3.29003552354855    2.45055950158783   -0.42627253042926
C         2.20639941131105    2.86279009195704    0.55667940459196
C         1.23297068893086    3.39923241264967    1.23836968019606
C         4.59796235647162    2.55983163207915    0.34040792405460
C         5.80329780148029    2.47560056109509    0.83041591689597
C         4.04200275495305    1.85077560638889   -3.48103781815952
N         4.78412795794588    2.41508263999006   -4.71799262666983
C         4.97770807673407    1.24217433941880   -2.46432681266124
N         4.39535254783649    0.49256707340724   -1.36148945331668
H         3.84050291317556   -1.77114530092788    0.42333962785041
H         2.35263195597477   -1.62519836325868   -0.59544834928300
H         2.21380520278208   -1.77508640173611    1.16048571554684
H         3.68457945562533    0.38222616816121    1.17157081952908
H         1.90560716226871    0.47318050339550    0.95636041651465
H         1.05127009190307    0.11193004980935   -1.20318267698704
H         2.04091573948285    0.04845634061031   -2.71031394243754
H         0.73492947747534    2.57617023292986   -1.54633414174198
H         0.11256735448095    1.60062075471745   -2.85686330048430
H         3.19131705986320    3.79652714322331   -3.71466630141739
H         2.57008475544259    4.26245232288839   -1.35747059051179
H         4.34166950263657    4.03637322536482   -1.65844093388962
H         0.39229465263606    3.57615439257386    1.86984783632004
H         6.81201422721125    2.43363645662359    1.18005108638846
H         3.43592263563629    1.02218716710972   -3.85514670211389
H         5.23622230264179    3.29125754544212   -4.45589742746321
H         5.54317630666257    1.80656071974793   -5.03392408694564
H         5.56986097772726    2.03996860069198   -1.97748428431263
H         5.68943224976610    0.61006659280266   -3.01307823614228
H         4.23246842140414   -0.47934444324434   -1.69970507173348
