37
 energy: -49.853706498536 gnorm: 0.321933933173 xtb: 6.4.1 (79825abcba525fcdf90b791dcacef51065a7a4e7)
C         2.65511743627650   -1.30522597312196    0.48750035217949
C         2.68202900907122    0.20800895649364    0.61954993604359
C         2.96071560598768    0.92967957731787   -0.76442764389252
C         1.52170225355813    0.78126331661095   -1.73153224857579
C         1.13235809183601    2.08419480409903   -2.41053294951244
O         1.93894415873913    2.51245382411662   -3.43682482057737
C         3.24597519788456    2.90272247432834   -3.09645767254589
C         3.45174744778159    3.40119378303486   -1.69792477894090
C         3.32552646615228    2.40796586884550   -0.45381441954311
C         2.24401253198710    2.98805369451890    0.44296957697834
C         1.43943302844160    3.62238543808788    1.24938793371070
C         4.61016966136241    2.47562287822676    0.35583139823501
C         5.75840113145278    2.70757378212143    0.92836919056927
C         4.20634109154746    1.71658050940166   -3.57041769824521
N         5.24702598175590    2.23602875054587   -4.59335363340808
C         4.90901455124769    1.11346537762739   -2.37788117179513
N         4.08698853722832    0.30215671578844   -1.49281013286679
H         3.63746650790388   -1.62972257840842    0.15047201283869
H         1.95835100653509   -1.54807316826186   -0.32485657700045
H         2.32576612467319   -1.78243581930869    1.42083538555937
H         3.47884672030603    0.57344960845098    1.27641215685907
H         1.77543145570658    0.62304947466516    1.07429586981496
H         0.77120690998815    0.49243653434706   -1.00008132985534
H         1.61824721665893   -0.10017143150085   -2.43560394022403
H         1.05712495255975    2.84582516312019   -1.61185339716225
H         0.18904139565546    1.95527000147070   -2.97484117792018
H         3.49128570868334    3.77483169478600   -3.70855135220718
H         2.70344658945193    4.22162189606182   -1.49493635340742
H         4.47589583163543    3.93431786049543   -1.67518473696575
H         0.71815565642254    4.25771126837073    1.71082297330290
H         6.59871718417870    2.69719785534405    1.58812358611406
H         3.48511037062796    1.04945379240724   -4.04855738542829
H         5.93210168838977    1.49778309237723   -4.75592755281766
H         4.80123468387175    2.35973733024894   -5.50562131163391
H         5.31995915073351    1.87562200385157   -1.68912998149823
H         5.68981665691824    0.44611834752128   -2.76805503018187
H         3.79928261158995   -0.51292951193324   -2.07452551095872
