37
 energy: -49.854918825425 gnorm: 0.334438725841 xtb: 6.4.1 (79825abcba525fcdf90b791dcacef51065a7a4e7)
C         2.41890639847750   -1.25035145474033    0.46909895687473
C         2.75553778005412    0.22281436777915    0.62563345701830
C         3.04347614343180    0.97392759641527   -0.74067143665775
C         1.53711343554166    0.88901764038872   -1.60770074564366
C         1.15065228823958    2.15215180514149   -2.35963235979488
O         1.94644781312675    2.55160208025113   -3.40577328541475
C         3.30980131162136    2.80786328435349   -3.17754755192728
C         3.66071281636988    3.34665906461286   -1.75311058737209
C         3.34790667083586    2.40309320912871   -0.50327867869468
C         2.20061484362082    2.97751134087103    0.31168211252108
C         1.50168370672870    3.58323225284018    1.23072125954422
C         4.53024647734078    2.60420599601199    0.43055116321470
C         5.58256046955852    2.91007199706019    1.13703365636359
C         4.15674889732564    1.63505491437742   -3.61666111046101
N         5.21609108812772    2.22261681787784   -4.58196654174683
C         4.90064203965670    0.93700087088157   -2.50356418518062
N         4.08861223476266    0.25656450715339   -1.50611082430200
H         3.25084716352369   -1.75466661853969   -0.01817573554172
H         1.48973224340606   -1.28766098047656   -0.11367491607318
H         2.31331526376775   -1.72331784312084    1.45523744409859
H         3.71689851690941    0.29907159521454    1.14515600803013
H         1.95608678131644    0.79692314081421    1.10755548083763
H         0.81360618958605    0.67753941646684   -0.82443907602084
H         1.63343613222110   -0.05955842839694   -2.21834832955597
H         1.01137324293526    2.96377288369447   -1.62105099757330
H         0.15604535538403    2.00678375741909   -2.82281369617107
H         3.48767324293380    3.66094357517687   -3.83787020430678
H         3.17050050916943    4.35512344328363   -1.62290978269227
H         4.77896981910014    3.61952416190267   -1.84619234698895
H         0.68109150428194    3.99140418410803    1.77553899817661
H         6.50733730748194    2.88307460123621    1.67142444729220
H         3.44958949073130    0.99220842511041   -4.14630564657670
H         6.05366020199640    1.64483141833163   -4.65550337909889
H         4.88408351689371    2.27193506582889   -5.54819875697609
H         5.43658398393404    1.76101290623867   -1.99571894620201
H         5.56264711736537    0.12895532877247   -2.84422722318867
H         3.68357962419647   -0.62351176856125   -1.88944797694594
