37
 energy: -49.852497359877 gnorm: 0.328625895852 xtb: 6.4.1 (79825abcba525fcdf90b791dcacef51065a7a4e7)
C         2.54519214085624   -1.27269121018306    0.37168197151991
C         2.93897275917604    0.17461921626838    0.61307507766932
C         2.86529556819656    0.97145460838859   -0.75568117362284
C         1.25440967499388    0.80250407325457   -1.39174759082999
C         1.02048953883464    1.79991632204218   -2.51456167388794
O         2.05229616582828    1.87424016555266   -3.41850466265806
C         3.15902441837722    2.71184750244454   -3.19477250966857
C         3.28843041081900    3.38616515702675   -1.80022086675736
C         3.25660929911758    2.41446147041939   -0.53332569077691
C         2.39300409721398    3.04491006589508    0.54700596352867
C         1.56071290615090    3.88097124066857    1.10227945221727
C         4.63614286460322    2.36567556145979    0.10300685100171
C         5.85179972697222    2.57131617495774    0.52718438305468
C         4.37562212004784    1.89767977990867   -3.53333635529311
N         5.53483080515073    2.87846483970777   -3.83918817275495
C         4.82376231477490    0.99441065301309   -2.40954079099540
N         3.79687891832514    0.27440773348613   -1.67170236530291
H         3.31633386143040   -1.66141730129721   -0.29023065093896
H         1.55154280469037   -1.29546120537977   -0.09363998395681
H         2.42950799297438   -1.91810041932280    1.25337349295903
H         3.97806804615612    0.32117756029025    0.92729625543814
H         2.30990759090719    0.61645034071481    1.39412174165501
H         0.58015689858436    0.91585220696582   -0.54663220731048
H         1.19972826719760   -0.26796424560581   -1.75653878320241
H         0.76513987948305    2.76903758343883   -2.04634122521550
H         0.11419982021449    1.59373028060212   -3.11542607865354
H         3.06231457127940    3.58359668101536   -3.84754428213736
H         2.46584896224676    4.12843467552848   -1.58421973129212
H         4.30899732668549    3.92136335836506   -1.72522508713566
H         0.92448490695056    4.31412099172398    1.84011243118820
H         6.80350289443618    2.73476300463470    0.98441609280360
H         4.11436912659486    1.29260034111230   -4.40481505035543
H         6.40675854622139    2.35492056075242   -3.75913158513079
H         5.41322385023884    3.41142666923772   -4.70372819350474
H         5.45117547396643    1.50410339967444   -1.65409230131859
H         5.45382007823620    0.20886095873635   -2.84906157447205
H         3.25177852979346   -0.22456668469021   -2.40615667689327
