37
 energy: -49.851663684886 gnorm: 0.324471703079 xtb: 6.4.1 (79825abcba525fcdf90b791dcacef51065a7a4e7)
C         2.65806574595868   -1.23654622088078    0.39466618222055
C         2.67973758071005    0.27294120964378    0.56501672153604
C         3.02998541755084    1.04810304562471   -0.77301138986363
C         1.63552595609903    0.82810557416392   -1.79044052954510
C         1.10288955050784    2.14323456518858   -2.33541345150015
O         1.89973494684640    2.74447613205623   -3.27923963718252
C         3.29125537781010    2.86241944757647   -3.11722168563410
C         3.62216751517343    3.42106643362108   -1.71918613523843
C         3.34779702440925    2.47757211613203   -0.46030435745625
C         2.28973949513363    3.20919891297709    0.34940686443758
C         1.34470844178770    3.75664751592761    1.06162303694647
C         4.64630514312770    2.49797288942382    0.32955164171903
C         5.54970454204657    2.35394526654747    1.25861667018423
C         4.10970047257559    1.60558272471011   -3.52563377572785
N         5.06333665211007    2.11578437551079   -4.63447179635795
C         4.92496193251105    1.02692996628461   -2.39419621351357
N         4.18855029140600    0.32937967752241   -1.35092216228587
H         3.68266431580980   -1.60077334984282    0.43251081302537
H         2.18052555426921   -1.54143536967423   -0.54521677350411
H         2.14408552333233   -1.79521997243957    1.18903623349418
H         3.32081067570867    0.64318667562811    1.37240565753468
H         1.67035168125329    0.61657643958402    0.81805141186735
H         0.89254210583699    0.31261697091610   -1.18717349451669
H         1.87180042381366    0.05305320560823   -2.58128393628249
H         0.94165762908664    2.79636547412950   -1.45731656636550
H         0.17951799121094    1.92215417640307   -2.90411389625140
H         3.55802193338598    3.61285380663986   -3.86628395898759
H         2.92146800971359    4.28827558153709   -1.54246810185091
H         4.69573866356408    3.84550117927203   -1.74949191851996
H         0.57177172790976    4.06954481063850    1.72605237474238
H         6.56022091966032    2.44569391865437    1.59321115076904
H         3.54194382094268    0.78066344348676   -3.96268060821492
H         5.72791229466831    1.39125716685181   -4.90680467011590
H         4.44707727663037    2.41319698511507   -5.39475867147831
H         5.58451735664180    1.84044297521803   -2.03737747005712
H         5.60895218212260    0.26978355817305   -2.80178213293282
H         3.89907986303282   -0.63666223689227   -1.61265280642017
