37
 energy: -49.849813750899 gnorm: 0.327862482265 xtb: 6.4.1 (79825abcba525fcdf90b791dcacef51065a7a4e7)
C         2.82355846269608   -1.43784280415192    0.25631953491020
C         3.12032615285982    0.03472996892185    0.48325486396199
C         2.96025565794831    0.94416127634646   -0.80561315863567
C         1.37804953478865    0.79489198007176   -1.51442949040297
C         1.04943847010652    1.96254856117429   -2.43031931226981
O         1.89387472195548    2.36687802156789   -3.43565854857194
C         3.17105068292060    2.87195804010732   -3.13531659073046
C         3.40051319791401    3.42813882027651   -1.78039214112111
C         3.21609494429110    2.45574868550509   -0.52711988274527
C         2.08612627953547    2.96719129088078    0.35151150040171
C         1.39975304727824    3.43182363652433    1.35801242204774
C         4.38672917223524    2.59931145565852    0.43174257824397
C         5.56418270797385    2.76691955523790    0.96610854530604
C         4.24904661907953    1.83264167467319   -3.56592800845190
N         5.31843117955913    2.62549055883980   -4.35779715929770
C         4.89386618440882    1.10829394699666   -2.40870317393452
N         3.91291130661461    0.27974551759176   -1.72420753166731
H         1.84415049949265   -1.66236097296187   -0.16111007634320
H         2.96132446639625   -1.92486496902130    1.23008128057543
H         3.55425282203256   -1.85391192959445   -0.45099089506894
H         4.20041774474257    0.04206780513676    0.66568737602800
H         2.73347532610101    0.52696284607024    1.38271295204526
H         0.66317148435418    0.75969488472099   -0.69626376466207
H         1.32645185986351   -0.21286952028349   -2.02796578932334
H         0.77137212783256    2.85594510844073   -1.84027560633953
H         0.13648555538372    1.71847266921826   -3.00638849654949
H         3.25010345421495    3.64646529689447   -3.90297509574846
H         2.71667519045014    4.31414448067386   -1.63335367548470
H         4.42370754562431    3.94777608550024   -1.65128464969522
H         0.68674902019133    3.78948516527672    2.06547672770065
H         6.34368384678335    2.94647609171306    1.67438251991210
H         3.75234917722583    1.18561352073788   -4.29290502944497
H         5.81257279990236    3.21688178222370   -3.68933165170229
H         5.95980543109069    1.94174511513092   -4.76693924754519
H         5.30323413858050    1.84428530900476   -1.69115806593667
H         5.70705806602264    0.43538815292280   -2.71391847916284
H         3.55109073642330   -0.36967635601681   -2.45418708235333
