37
 energy: -49.850212305091 gnorm: 0.331272110078 xtb: 6.4.1 (79825abcba525fcdf90b791dcacef51065a7a4e7)
C         2.68874289441537   -1.40097613876033    0.54996408378462
C         2.91903474934532    0.10024869548465    0.51348208578518
C         2.97131623569567    0.88213818300476   -0.86484447985887
C         1.39124861597385    0.66978421798990   -1.56224697628362
C         1.10991504370919    1.88072111238510   -2.43674371623160
O         1.97589182624382    2.24712282441323   -3.43829045688561
C         3.20032669991625    2.87087685568382   -3.14133978640204
C         3.25008550997835    3.41128846511954   -1.71952960901787
C         3.17495849389017    2.37742631670492   -0.50473373617414
C         2.16480820748521    2.91074545359217    0.49804388435528
C         1.34166881938303    3.50931049964279    1.31302665929782
C         4.55617321112530    2.37876200846288    0.12981814446250
C         5.67842471785222    2.74579684418056    0.68287626601317
C         4.36087501662850    1.99775988248662   -3.56341908241101
N         5.44943863274069    2.91148142162372   -4.17936684479628
C         4.88374452790054    1.11359863544732   -2.45684437481040
N         3.91136057317072    0.24284607275080   -1.81375909615634
H         1.63459245756628   -1.58393658297126    0.35200403923327
H         3.03380614631506   -1.88793531209776    1.47093320046743
H         3.23485088042965   -1.78614551429521   -0.32223224047746
H         3.92812917337807    0.27618126853303    0.90169528148777
H         2.24355455166734    0.54399646880004    1.25360777511763
H         0.71001025299688    0.62848247782221   -0.71614232764135
H         1.42536775806702   -0.29556417963285   -2.15292747150510
H         0.86151522609875    2.73780819712583   -1.78303956589400
H         0.20024635158672    1.71053753365181   -3.04374634455505
H         3.26707990663416    3.73459842805752   -3.80837761636937
H         2.40133521657764    4.12019910900727   -1.49296966882706
H         4.23583310971384    3.98567625117571   -1.54064794114184
H         0.59126310456302    3.89092814416801    1.96729076105176
H         6.68095417250537    2.75490147772703    1.05215447688835
H         3.98546552994319    1.37411388501609   -4.37827045348514
H         5.94276842792894    3.28899203833959   -3.37012207197080
H         6.13875383289675    2.32960759659245   -4.66158403370191
H         5.41397419309629    1.70845571642979   -1.68929115565108
H         5.57710842548654    0.46940643407778   -3.01496850062051
H         3.43317659073891   -0.30587194126246   -2.55926674831937
