37
 energy: -49.858071413246 gnorm: 0.322779480860 xtb: 6.4.1 (79825abcba525fcdf90b791dcacef51065a7a4e7)
C         2.55586944563697   -1.24367251127786    0.46910588793292
C         2.80651405445713    0.24760454599346    0.61508977767946
C         3.01995980436172    0.95116445034751   -0.78965682538682
C         1.57474113864106    0.80197716790159   -1.74734377541834
C         1.13909749009963    2.11161926260618   -2.38398612747756
O         1.91441174434498    2.65490442735518   -3.37947139258741
C         3.28298378660990    2.84273802792570   -3.11828437970220
C         3.55393777712808    3.43404734110094   -1.75061662920738
C         3.37909846510207    2.43917975974027   -0.51371982432361
C         2.30309350869159    3.08172277794989    0.34636600390658
C         1.49243174989113    3.73716350952810    1.12947547543598
C         4.58502583529927    2.49089800274961    0.41011802661596
C         5.58933477566827    2.55239550637434    1.23934528204303
C         4.09965049902451    1.63509598672110   -3.53781426594753
N         5.09076072056796    2.21432759458979   -4.57773768456212
C         4.93927615054815    1.00340061189481   -2.45354910521289
N         4.14566512317300    0.27573426197495   -1.47478331256733
H         3.51028605474685   -1.69027643999878    0.19794225838132
H         1.84933928487350   -1.45859879089247   -0.34268461733438
H         2.34547631780495   -1.73408210883522    1.42960001423701
H         3.69995066580806    0.37206224931477    1.23655145287840
H         1.92575195002647    0.75373641402182    1.02625916774596
H         0.74297155113915    0.44425235982303   -1.14578169854610
H         1.80076513088715    0.02822528548224   -2.54244519751366
H         0.92070711887624    2.77732540232179   -1.52796577862662
H         0.18648773429633    1.85056517183172   -2.88328281833116
H         3.56482925819633    3.57496600359092   -3.87974070385673
H         2.81163927089281    4.27397992512124   -1.61732392554784
H         4.59695152122890    3.92962693970297   -1.73872149871740
H         0.77922731309121    4.24423545361630    1.73858936804972
H         6.26558075496908    2.87648869100401    2.00037720134742
H         3.43958676069823    0.88159752687799   -3.97416882607868
H         5.83464577513412    1.52207909656721   -4.66825120551931
H         4.59381113991965    2.30376765116173   -5.46729240534731
H         5.53452014364829    1.80213428493732   -1.97204573337165
H         5.61255069278332    0.25817226972557   -2.89916747936013
H         3.71536795269920   -0.53612093185320   -1.96597424154496
