37
 energy: -49.853036346027 gnorm: 0.328521929104 xtb: 6.4.1 (79825abcba525fcdf90b791dcacef51065a7a4e7)
C         2.48921523103914   -1.24815209708986    0.40569796585741
C         2.81163887480908    0.22543851442096    0.58629414852772
C         3.06645918316353    1.05326775178436   -0.74172468051816
C         1.55462939566848    0.92764032400208   -1.59417208323994
C         1.12122547691867    2.16094680620969   -2.36965738512241
O         1.91095999923536    2.48344050888820   -3.44649491798525
C         3.22878809770648    2.85503213287816   -3.12753046862399
C         3.51008104795183    3.39518906967339   -1.72465237204850
C         3.31017794363774    2.49095119120879   -0.42363868331878
C         2.15409384830278    3.11229210184577    0.34304303867087
C         1.43506335115365    3.75997484776994    1.21684950608178
C         4.54164528214829    2.53811182280237    0.46612311608805
C         5.72730029184112    2.63854093803335    0.99920138383783
C         4.17143537429786    1.60600609963979   -3.58602604028412
N         5.30019038873521    2.03423035430782   -4.55648240122674
C         4.95578862643670    0.96058723664955   -2.46894695300048
N         4.13677827479713    0.31727436636298   -1.45274330642304
H         3.38731585691503   -1.80413147453399    0.14455041263324
H         1.74683498311163   -1.37120355014441   -0.39312110350992
H         2.16661083159946   -1.68584546133819    1.36051037081028
H         3.75940089990624    0.21179080453037    1.13537901992074
H         1.99157450343307    0.68170035018616    1.15223688751943
H         0.85953429595738    0.65945900009962   -0.80258747168063
H         1.60684426649422    0.10421405046893   -2.36954803812209
H         1.00242676130737    2.96635160285752   -1.62076497956843
H         0.16833133405284    1.93080502421553   -2.88340760007600
H         3.46523456089121    3.69855816870579   -3.78172257246461
H         2.93476190881968    4.34503445178474   -1.52201376977106
H         4.58610696324905    3.81295400870523   -1.76013463587553
H         0.62034330172464    4.29389335511863    1.65039827437184
H         6.60523873101262    2.72667396095203    1.60167235852369
H         3.52300240126466    0.86587523078709   -4.06098956125394
H         5.63275721547228    1.16435886381027   -4.97300196940233
H         4.87422549505041    2.54297144342960   -5.33494397657055
H         5.53824208782570    1.70201139852361   -1.89000432510052
H         5.59915523294262    0.17186092482242   -2.88274622953334
H         3.70514613042381   -0.54470833664502   -1.84798064151788
