37
 energy: -49.853996642632 gnorm: 0.320460604699 xtb: 6.4.1 (79825abcba525fcdf90b791dcacef51065a7a4e7)
C         2.96048088340357   -1.40989970833451    0.28095817882499
C         2.97816135703085    0.09389850699171    0.49617808033592
C         2.85922358030478    0.89874142945687   -0.86468573411520
C         1.19415644967169    0.87474019304022   -1.36971397340545
C         0.95627862898369    1.79494928826671   -2.55583818812308
O         2.04007168987017    1.87916694064833   -3.39581548803917
C         3.08319461402838    2.77910014223049   -3.11562921094028
C         3.11712053139204    3.43008297632922   -1.75592907216779
C         3.18518508713963    2.38840016033545   -0.54741421679304
C         2.33362322915488    2.97517157711031    0.56655956220058
C         1.68284402855142    3.68278079763092    1.44736096462515
C         4.62553360362349    2.51404145880711   -0.07834875479354
C         5.79404120639259    2.92341517293823    0.33035585479255
C         4.39655610116321    1.96075842165778   -3.46869113512794
N         5.53237406652654    2.97188358146957   -3.76329748967687
C         4.77607221525017    0.92047284979158   -2.44233122350418
N         3.68089458874610    0.16443722861670   -1.85386256470566
H         3.82856452676622   -1.81042827673174   -0.23856419885874
H         2.00359465609145   -1.64472014561934   -0.20237411722561
H         2.93432442970354   -1.96096398429633    1.23120015431322
H         3.94026507598147    0.39555342013412    0.92430663526169
H         2.18147784877397    0.35517130017926    1.20187173553868
H         0.66339098524963    1.19006230189238   -0.47498238973226
H         0.93172042028447   -0.19264411608494   -1.64134452983891
H         0.60721696285422    2.79512129870438   -2.23733895868392
H         0.13511273469002    1.32938948867923   -3.13363782271860
H         2.96157147178981    3.63203060293764   -3.78877693043963
H         2.27693952114233    4.16221456873437   -1.57609590649886
H         4.08102763033234    4.06558312902945   -1.73061167482450
H         1.06602293435908    4.10620439226955    2.20699671929767
H         6.67724881225663    2.88723837869946    0.93048098714110
H         4.13223943073300    1.45635643078670   -4.40119566548104
H         5.95232981296459    3.27059593599885   -2.88285796581266
H         6.25557589394191    2.62539513591198   -4.39827062660064
H         5.37672015726172    1.36804769982471   -1.62806149407871
H         5.39995787892146    0.23917870322561   -3.03717960007326
H         3.04025798152544   -0.17866679637476   -2.60045308494438
