37
 energy: -49.856106052507 gnorm: 0.329090776552 xtb: 6.4.1 (79825abcba525fcdf90b791dcacef51065a7a4e7)
C         2.83779103206839   -1.38121816716612    0.22776171971485
C         3.11136422553676    0.08884827536477    0.49628292918320
C         3.18009858089297    0.97245758765159   -0.81839528912389
C         1.62272454490813    0.70917056103487   -1.54869946204080
C         0.99889297969542    1.89971298975266   -2.25842066990765
O         1.69145574499459    2.50679813165154   -3.27776669690917
C         3.04474156546390    2.83443663032797   -3.08344723214662
C         3.42317263562803    3.39927137227459   -1.69354954351934
C         3.37180208741748    2.41363750619891   -0.43810899316500
C         2.24228713620839    2.91548410665606    0.44661798038320
C         1.19865629300492    3.42874692259199    1.03605116256721
C         4.58791192100873    2.60785125331097    0.45282864659306
C         5.48665859835516    2.74622409712532    1.38725020953726
C         4.06818945818405    1.84043011620290   -3.62100581346963
N         4.94467314921476    2.53655189765990   -4.69172531367893
C         4.97504471551267    1.20960216232199   -2.59177753221774
N         4.28963151864223    0.38783194764802   -1.60577463146679
H         1.90194811659235   -1.40116141349609   -0.32694194114583
H         2.75496868176454   -1.91400835488551    1.18361582592153
H         3.56701478313365   -1.91610010557819   -0.39629744505528
H         4.10002691038969    0.05137097895941    0.96646891368125
H         2.31198400861330    0.50715296045951    1.11836337334069
H         0.98474395499690    0.36956753135448   -0.73670490140871
H         1.77857930760490   -0.06841337871465   -2.35680688166786
H         0.67168739079401    2.62811636582418   -1.49291764529706
H         0.06884679622151    1.55146863041542   -2.74694061163978
H         3.15166604008507    3.70074328870924   -3.74184706672166
H         2.74556942957619    4.27309906783578   -1.46652571681966
H         4.47784978009088    3.85982704155780   -1.78927259498382
H         0.45631676924942    3.84732365369775    1.67677561423721
H         6.20708116615227    2.92262114011702    2.15626906766703
H         3.57463310291968    1.09158174616419   -4.24508722855930
H         5.48942457306358    3.21877105276551   -4.16391041665528
H         5.62967784458081    1.91128328996164   -5.12308797577576
H         5.56580593016396    2.01248180710005   -2.11165061967713
H         5.72631160661298    0.58318706217432   -3.09221914442183
H         3.98102560079812   -0.48011507012463   -2.09256349862957
