37
 energy: -49.855259412122 gnorm: 0.330998322603 xtb: 6.4.1 (79825abcba525fcdf90b791dcacef51065a7a4e7)
C         2.70801401964750   -1.24195488836401    0.43230730081395
C         3.01460782612092    0.23513104184923    0.61191428888225
C         2.85854058106675    0.98795196342862   -0.77472637152378
C         1.24477597218702    0.93678691617080   -1.42374413428079
C         1.05262773373969    2.03122625764674   -2.46082796478949
O         1.97760313240215    2.20422924680394   -3.46170375816080
C         3.25053864701336    2.74933366598383   -3.21883362844176
C         3.45676748791570    3.32401696498752   -1.84743139642281
C         3.21735905859649    2.45446633931833   -0.52955077398053
C         2.28515559079542    3.16249161644152    0.44003300811921
C         1.50721979330743    3.77543088100955    1.28806419337837
C         4.53900210861386    2.47184928922071    0.22102866224984
C         5.59772846171185    2.71356185483356    0.94263092611159
C         4.31003239286200    1.71621433003994   -3.61238153667803
N         5.57450724938199    2.47187285386121   -4.09126876347834
C         4.79454366393721    0.82374077092010   -2.49507182377953
N         3.76964611334657    0.22194062663275   -1.65559528832572
H         3.48754581053796   -1.72542285321721   -0.15291467488528
H         1.78430371659219   -1.44687478345642   -0.12370448936074
H         2.66725856092025   -1.76043321800440    1.40020968358096
H         4.04665109046235    0.39839147052918    0.94080035598300
H         2.31343858363506    0.67041512335617    1.33292821493037
H         0.56055227904212    1.00485877947984   -0.58178880498885
H         1.07610452789283   -0.09841313202773   -1.85021323767029
H         0.86960145012943    3.00071972367464   -1.96061435521999
H         0.07374068985164    1.78449155440129   -2.91449514697615
H         3.29809619758786    3.58066832676865   -3.92737535124783
H         2.81487633800897    4.25234691047314   -1.82645464186360
H         4.55222633878711    3.68412178411009   -1.90998319695121
H         0.83064845612398    4.09812207963101    2.04630153297659
H         6.50633066270858    2.82525695794273    1.49352189089299
H         3.88361379308593    1.16119605886061   -4.45141149216851
H         6.37956074501363    1.86573294679431   -4.25016790485170
H         5.39089526103521    3.04084803885042   -4.92122050141194
H         5.46976027345462    1.43880070995191   -1.87063592594220
H         5.38541351228453    0.01283134517328   -2.94288691076048
H         3.16344785311768   -0.38924490148631   -2.24254414375749
