37
 energy: -49.851803176577 gnorm: 0.318691571093 xtb: 6.4.1 (79825abcba525fcdf90b791dcacef51065a7a4e7)
C         2.75362699183726   -1.38145867819619    0.25159900864475
C         2.70411507261818    0.11655804555169    0.49966299740633
C         2.97178738501111    0.89642817496186   -0.85459796709681
C         1.54908701084280    0.79036191887297   -1.85096723865514
C         1.04120942706414    2.13425437570210   -2.34722796968231
O         1.81468440085907    2.63188057898274   -3.36770163552159
C         3.16176240209147    2.89101916298230   -3.05993938167785
C         3.51357714076833    3.37440995517461   -1.67867014349186
C         3.29848749008525    2.33914829199463   -0.48191880178578
C         2.22200932296083    2.95059149660441    0.39996998567397
C         1.64440735335771    3.47632380853704    1.44400881764348
C         4.53285825602581    2.50607119935016    0.38921702088098
C         5.44456030390360    2.80858402454640    1.27087547053005
C         4.14300524640080    1.72490985741801   -3.53432920182733
N         5.03000765770481    2.26970925323745   -4.68135569843992
C         4.98050203159169    1.08967865677226   -2.45048342114232
N         4.19263177276755    0.34149162504997   -1.48261159239612
H         3.62005874961507   -1.71143290192807   -0.31788221807109
H         1.87703854278131   -1.76416740326881   -0.28646113747618
H         2.72581818603383   -1.80583297962068    1.26473716844125
H         3.50863864280630    0.38534555255197    1.19279243201039
H         1.78352872920809    0.47032244821986    0.97751564342081
H         0.74053160819121    0.27266192444425   -1.34115404372143
H         1.87601190821526    0.19333730078535   -2.75575826907109
H         0.98056244897896    2.81450601520971   -1.47705011016377
H         0.02691316119876    2.00051094601411   -2.76939801904464
H         3.42739126785249    3.74489964258573   -3.68901794911669
H         2.92420392270452    4.29648459811540   -1.40176161704797
H         4.63811767787879    3.63706236438174   -1.68504234550703
H         0.85213568643287    3.90906190468708    2.01132321708587
H         6.37623800589422    3.07439904414843    1.72124606988283
H         3.48794223240652    1.05241968652220   -4.09334511165632
H         5.38589143001073    3.21521319806634   -4.53945895502719
H         5.84297860762506    1.66624175117415   -4.82685902903056
H         5.53592716652481    1.92622244329815   -1.98590425521484
H         5.70700158011401    0.37692810146610   -2.86451805535890
H         3.94171034642051   -0.50579342662821   -2.03458941644833
