37
 energy: -49.855651643192 gnorm: 0.323404285930 xtb: 6.4.1 (79825abcba525fcdf90b791dcacef51065a7a4e7)
C         2.63980939796288   -1.41419236703625    0.37945450305843
C         3.05244093930506    0.03610756427504    0.56494465843274
C         3.06242678287218    0.86942274444889   -0.78388992713222
C         1.53628106284088    0.72711825924216   -1.60772656489595
C         1.03202088963141    1.94737867607511   -2.36068571507177
O         1.85758785353242    2.29008373963083   -3.40387999399609
C         3.10972777853459    2.87710547092326   -3.15081745775842
C         3.35457817423417    3.44715780201425   -1.75414435230115
C         3.29451349101260    2.39903691738439   -0.55078286169316
C         2.21155508109811    2.88102829609206    0.40067983860144
C         1.59804496060805    3.53392880549294    1.34797165777171
C         4.55520990013587    2.59255253954669    0.27602318101110
C         5.47483953344720    2.91955298685516    1.14053943294988
C         4.18474524688237    1.86854286808952   -3.58998165457570
N         5.09576210968185    2.68915266569140   -4.53650015892964
C         4.94731895853113    1.07453207731634   -2.55670075455971
N         4.13527584292763    0.29962971519215   -1.63073554797599
H         3.34435339410894   -1.92881870867249   -0.27067881621672
H         1.61755629331171   -1.55972697238105    0.00770153828994
H         2.74749092199268   -1.85598581262885    1.37972399128113
H         4.04129364245424    0.23579943772081    0.99182496864500
H         2.31057241590089    0.43747472946009    1.26459250727265
H         0.76253862408661    0.45334427777532   -0.89494675121150
H         1.73565853061892   -0.11233496770514   -2.34089230132080
H         0.91574309230860    2.77185519906996   -1.63243589999501
H         0.02967683245595    1.70095332767328   -2.76005109827388
H         3.23393786610657    3.66118681101178   -3.90261445034178
H         2.63079813317770    4.29044182464564   -1.55596445373222
H         4.38108027442561    3.97604392651192   -1.76797229500904
H         0.86785617767054    3.87200825737591    2.04749214358874
H         6.35104370316581    3.06499460270503    1.73436396209044
H         3.58990166178184    1.20302335303613   -4.22013580562600
H         5.67205318583334    3.28335986936668   -3.94020153447021
H         5.73130457398541    2.07777508661576   -5.05473682547452
H         5.53398736274635    1.82558103436783   -1.99466691537042
H         5.56968135902000    0.33574686803144   -3.08024739382794
H         3.71329692576028   -0.56665426792721   -2.02699164364100
