37
 energy: -49.858553002433 gnorm: 0.324571437733 xtb: 6.4.1 (79825abcba525fcdf90b791dcacef51065a7a4e7)
C         2.70991540282877   -1.36826843944819    0.48579625534042
C         2.70732581396463    0.14951990163709    0.55177445772428
C         2.97510125865619    0.95447871845647   -0.78770538922641
C         1.51441783522834    0.94691171162891   -1.73344573841183
C         1.07567534263799    2.22541081025178   -2.42857620754153
O         1.89146486502916    2.71782483856703   -3.41816084564070
C         3.26184133852242    2.85601506720655   -3.13627197806099
C         3.49453216092618    3.39238144956993   -1.73716349590701
C         3.34706755798574    2.40716812509918   -0.48902370200740
C         2.20791736572723    2.94692000976211    0.36032938124496
C         1.57230333703712    3.78650991318101    1.12917212434308
C         4.55560979274925    2.56813970489510    0.41867988909097
C         5.66989495821849    2.70831578946340    1.08106616038593
C         4.13461731348210    1.62774581157490   -3.51393641151190
N         5.16896046023863    2.20127928895075   -4.51415791121053
C         4.90127802586116    0.93187394350466   -2.41501197583006
N         4.10468215159830    0.23332866109310   -1.41763102658792
H         3.70974487784291   -1.76185164214020    0.31453875821964
H         2.03633492425698   -1.80109603012893   -0.26475794909500
H         2.39174139577783   -1.77908248783219    1.45394548307273
H         3.56450451249731    0.48624216280589    1.14489848334533
H         1.77336807527589    0.55867098560207    0.95338366152504
H         0.67377828882471    0.63866710718384   -1.11700836595407
H         1.66246590443679    0.15456051530218   -2.52857242195873
H         0.80913129331759    2.99237613772940   -1.67734500975427
H         0.11351767513025    1.97321638381592   -2.91392388165581
H         3.59340751425770    3.72374211579907   -3.71292096318207
H         2.82878146831394    4.28124493899478   -1.53478148103661
H         4.57840483791900    3.78897966496943   -1.77651048423251
H         0.83900465895820    4.23748634577507    1.75821553537634
H         6.59235353170833    2.86572480175413    1.59663107322692
H         3.48078619486153    0.96616819540617   -4.08723327691504
H         5.91939807970972    1.52008930429324   -4.63073080248443
H         4.69429014034811    2.28510401374025   -5.41633722466451
H         5.57279347870877    1.64482924450490   -1.90032942880318
H         5.63282247189151    0.21375865667733   -2.81047725225635
H         3.80635044158309   -0.71567713597662   -1.72733932042804
