37
 energy: -49.853026388227 gnorm: 0.325526742731 xtb: 6.4.1 (79825abcba525fcdf90b791dcacef51065a7a4e7)
C         2.60914919931555   -1.31332637614864    0.42513519253591
C         2.87550810739440    0.17367315419391    0.58615260227543
C         2.84757248336325    0.92626152803625   -0.80908894891716
C         1.19659843275583    0.88956645394329   -1.35773846061741
C         1.05502229851158    1.89106140381184   -2.49229800181211
O         2.04245877780893    1.90330878262026   -3.44732736105987
C         3.22122668496227    2.63555028880491   -3.22189854815689
C         3.42165255389959    3.33806931864927   -1.84026605790513
C         3.25883524062861    2.39955116762541   -0.55850233812951
C         2.31251665653627    3.10832794487985    0.39675282504837
C         1.73254263402526    3.99043127791068    1.16197133274977
C         4.58532200325280    2.61751967045662    0.15095841435344
C         5.72190131348353    2.50946385509492    0.78067873694484
C         4.39377829197514    1.78143613853653   -3.56422034572175
N         5.51415234467596    2.81429987971008   -3.84207627514863
C         4.82172653079448    0.92867579111756   -2.39404885630107
N         3.70937814201164    0.21734203055800   -1.78250605382898
H         3.39504679538129   -1.75671974426738   -0.18286409730363
H         1.64686023967737   -1.42895714857528   -0.08965746549343
H         2.69328423289380   -1.74839615057061    1.43059598031132
H         3.87974784549752    0.26563898713348    1.01391205107879
H         2.18376385542560    0.54308871004755    1.35165482734803
H         0.57523811377149    1.09296773244529   -0.48927781609207
H         0.99439871561362   -0.15204895177380   -1.75285580124431
H         0.82013875362497    2.86688363408732   -2.02729203253466
H         0.16578014034425    1.53829074930050   -3.04881666278739
H         3.14627770363581    3.44413726796537   -3.95400520644612
H         2.73312319262324    4.22566781167942   -1.72910403376720
H         4.49245925578389    3.75832777730185   -1.94211957259474
H         1.10866264217299    4.47569165773122    1.87758181436305
H         6.69689596781945    2.67870931632926    1.18348883509626
H         4.13186742400321    1.12852338298416   -4.40025682854183
H         6.34342615442524    2.34269379228861   -4.20354315005139
H         5.21783881938569    3.44653295684257   -4.58956917918952
H         5.23409672040829    1.62339122328955   -1.63810065451441
H         5.55377505363808    0.15394977187542   -2.66077752326256
H         3.05445559008734   -0.28662371354831   -2.41703581593560
