37
 energy: -49.855413186307 gnorm: 0.315867488968 xtb: 6.4.1 (79825abcba525fcdf90b791dcacef51065a7a4e7)
C         2.57195311189579   -1.32268211424535    0.38473077378482
C         2.95785796592171    0.13144737369784    0.59597980536888
C         2.92202221045552    0.93934345172225   -0.76779743872755
C         1.26799029361326    0.98668468003014   -1.30632817799002
C         1.01022047468950    2.04677823031224   -2.36463705260122
O         1.97687313071909    1.96488050056052   -3.33733293544046
C         3.17736771977404    2.67795048074004   -3.17352360403971
C         3.56507152884377    3.31260988682187   -1.83857029319996
C         3.36711162221111    2.37710705792199   -0.55955099249699
C         2.41712410059556    3.13005846109249    0.35750069615184
C         1.36974135789244    3.77354491961478    0.79218468441125
C         4.62683954575524    2.46654740773237    0.28632020628800
C         5.61206381221071    2.83893712846637    1.05488724716958
C         4.34712346027414    1.74967039544926   -3.62436625469579
N         5.45715448254054    2.74559749808580   -4.04294692691314
C         4.83322383128363    0.86628334416637   -2.50054466440167
N         3.77082725563185    0.21997619802905   -1.74496551891557
H         3.11997185428973   -1.72850533564116   -0.46313644330061
H         1.48975062366728   -1.41356401376928    0.22674263198472
H         2.86012031698056   -1.97836321259723    1.21801209927955
H         3.99656110329370    0.20224861059452    0.93659144544645
H         2.40796420567330    0.58394966789035    1.42894447800011
H         0.62211315737014    1.18662632715139   -0.45512275046145
H         1.00654182632480   -0.05553856959901   -1.66323221105503
H         0.97851427431647    3.06994466465699   -1.94540558818683
H         0.01699551213085    1.91855882426105   -2.83578005449025
H         3.15807765472194    3.48930992435189   -3.90614503318196
H         3.02715410101454    4.27048507827512   -1.57899230798001
H         4.67485797257691    3.62502079284347   -1.90484087496935
H         0.99113135587562    4.42510010776869    1.54646089834892
H         6.51273511644020    2.90329046753637    1.62599539059483
H         3.95527178399028    1.07418103925839   -4.38857549515617
H         6.21770076069041    2.11027299146103   -4.28522318444346
H         5.18145682355480    3.14344786779735   -4.94404175812445
H         5.46924692973357    1.40641147916588   -1.77399624565042
H         5.49520375908594    0.08284120445353   -2.89455052143347
H         3.15545877181108   -0.41321743882396   -2.29806631139061
