37
 energy: -49.857027808676 gnorm: 0.318029203183 xtb: 6.4.1 (79825abcba525fcdf90b791dcacef51065a7a4e7)
C         2.53203281725809   -1.22403005988595    0.45130824700612
C         2.78256611842152    0.26482671765778    0.62036397302577
C         2.93971973568371    0.99425398208869   -0.77860252137574
C         1.44775902816060    0.93794977979246   -1.67244882540178
C         1.09238742207889    2.17031785309830   -2.48807204884892
O         1.96126587585366    2.43192429665491   -3.51951481380068
C         3.26671978786588    2.81395735223521   -3.16408496119056
C         3.46990761096386    3.40544817976737   -1.82280960957010
C         3.35217937029489    2.48045365444681   -0.52636477356701
C         2.43748436670835    3.10198725875995    0.51643193147524
C         1.63426228819895    3.61547330503135    1.40592720773506
C         4.68465198127264    2.48342850983151    0.20501742794455
C         5.51283997112007    2.85934155951694    1.13927134661292
C         4.17365950927196    1.59040370005321   -3.53441137310339
N         5.25810899540985    2.16986954881670   -4.47645069580337
C         4.92380583645068    0.92694869059646   -2.40447811919255
N         4.02318135219289    0.26288325044895   -1.47432120448793
H         3.43271677036958   -1.70308521612499    0.07292957323109
H         1.66724646424086   -1.30682033530418   -0.21926787254522
H         2.30047003788765   -1.68752043370867    1.42026188927309
H         3.74999999247932    0.37376748983087    1.12249634565651
H         1.94999626130534    0.70076104788738    1.18406629917108
H         0.66730430136871    0.65489816386825   -0.97069614854618
H         1.63348785087152    0.07093361940833   -2.37654603039432
H         0.92962809484760    3.01667807224395   -1.79466478238889
H         0.12883751033874    2.02776486818014   -3.01358321401860
H         3.61737820373300    3.54300760204492   -3.89956767371824
H         2.71430382311652    4.22696623724157   -1.65419238867380
H         4.49546332492329    3.93595015248982   -1.80228042739778
H         0.90157245104246    4.08237613555472    2.02396415522183
H         6.46450918679679    2.72674503057836    1.60645278801837
H         3.53501114275858    0.87645076035751   -4.06000516457449
H         5.94005218447939    1.43779876248157   -4.67592877874232
H         4.83901163934333    2.35678745382044   -5.39060884055925
H         5.43050265285196    1.67021480087647   -1.76031182511405
H         5.59112029953808    0.14401242856467   -2.79040796193087
H         3.61063027447547   -0.58816350293281   -1.91141852911189
