37
 energy: -49.854822040718 gnorm: 0.323154370119 xtb: 6.4.1 (79825abcba525fcdf90b791dcacef51065a7a4e7)
C         2.63842060298580   -1.28320232840664    0.40392044059479
C         2.66754576882946    0.22200486084134    0.60774467767052
C         2.97595088610855    0.96622287173761   -0.75786671719371
C         1.50374926252731    0.90884203006336   -1.68382997221840
C         1.10790645020994    2.18204560907974   -2.41357129855597
O         1.94231770752580    2.49049950547077   -3.46041222416891
C         3.26304091173169    2.78768913935976   -3.08112593198581
C         3.54823952316712    3.30708654607253   -1.71938393194055
C         3.30846444497379    2.40496068538114   -0.42365215266889
C         2.21517175447907    3.02597647699852    0.43042414184118
C         1.58085742513505    3.89542055479961    1.16645935447616
C         4.51189365454643    2.54895709923345    0.49364560486582
C         5.73843914021894    2.72065016421036    0.90125315647153
C         4.20177020280469    1.58966252314908   -3.55221262310354
N         5.21016300192052    2.27737930362462   -4.50585775410800
C         4.90264976677974    0.90614984855005   -2.40276950557484
N         4.01531236542373    0.20454583835650   -1.48751904511302
H         3.60424548302246   -1.66610058848011    0.08070678000525
H         1.89343244540186   -1.60657768226745   -0.33418729119788
H         2.36994690039581   -1.72958965485670    1.37137898444164
H         3.46467270458185    0.48940911309574    1.30989631820049
H         1.77297564099545    0.63549597125591    1.08705773581192
H         0.80287597083037    0.58170423971088   -0.91999614710109
H         1.71575854225445    0.09388629067184   -2.44070796775665
H         1.04361987887605    3.02797308685702   -1.70370948427138
H         0.13418296502603    2.06005376296159   -2.92532547243813
H         3.55333677988635    3.61037149326797   -3.74016497885010
H         2.96943365905584    4.27137050663106   -1.62242529644848
H         4.62325589490643    3.72586741779879   -1.77018438446846
H         0.80230332606799    4.43849622885089    1.65197412575924
H         6.59029422234935    2.89467053199807    1.52219956616617
H         3.56451000936619    0.88218466930678   -4.08814536322716
H         6.00746234080163    1.67402704764525   -4.70845458111307
H         4.66503915763440    2.33407615819519   -5.36950784052329
H         5.42197413584841    1.55770711641076   -1.67481915340836
H         5.61192193158992    0.16301737022008   -2.79254731716120
H         3.51709493498484   -0.56947488360594   -1.97558087860787
