37
 energy: -49.851325101834 gnorm: 0.319938666759 xtb: 6.4.1 (79825abcba525fcdf90b791dcacef51065a7a4e7)
C         2.61326207300083   -1.35595420525021    0.49677449157476
C         3.04805581120329    0.09971907075828    0.49345847051524
C         3.04777416223682    0.90306584065395   -0.87347332497485
C         1.43382616037731    0.81607843204932   -1.51820828500725
C         0.94041677229080    1.87609929361430   -2.48937471639928
O         1.84575792600008    2.21811755445756   -3.46438383456932
C         3.09855702799987    2.78353430038740   -3.16893863590430
C         3.23690215401120    3.34820046266083   -1.72236135385319
C         3.27943075612300    2.34203147268131   -0.48298275367469
C         2.19443040016235    2.85857076160898    0.44780039458845
C         1.68182454114786    3.38832025861653    1.52327063087373
C         4.58190873711461    2.54749354175022    0.27315771277743
C         5.54417405418407    2.94378912299741    1.05867128443693
C         4.26033215679174    1.87567603165915   -3.71511271876006
N         5.33409229038648    2.71246568231859   -4.45407936168553
C         4.93115139903152    1.16535220472840   -2.56399029914107
N         4.06246351194593    0.30729923467526   -1.77251969861371
H         3.36306757585230   -1.90460751625616   -0.06950026419972
H         1.58637805203582   -1.42977146144005    0.11671894526696
H         2.54539424290479   -1.74553398624565    1.52192685102208
H         4.09765663786421    0.11569438030750    0.80653387068198
H         2.43599973278673    0.64556151903016    1.22038006060695
H         0.79961485924063    0.80112896615929   -0.63546417932092
H         1.55884018805417   -0.17920903171764   -2.04331727293978
H         0.52561876882230    2.75637048949036   -1.96335656637923
H         0.05925100424299    1.43780117077557   -2.99568827066075
H         3.15938028899961    3.66089394665135   -3.81851618616536
H         2.39262476051117    4.07111786742784   -1.52526525103791
H         4.20266579907215    3.98130698848416   -1.71261373233281
H         1.17681449610969    3.94743988062738    2.27769252080361
H         6.47119679320439    3.01899080076993    1.58449267298783
H         3.84754955796062    1.26963211034166   -4.52515633563401
H         5.82873634552295    3.24663286563761   -3.73940577614625
H         5.99686463022388    2.07448158506643   -4.90126514844803
H         5.40523935695854    1.93074034202919   -1.92090554877701
H         5.75908147119541    0.55889553485027   -2.95639535721695
H         3.52040985523205   -0.40979816481854   -2.29928548348734
