37
 energy: -49.858421735639 gnorm: 0.326999603789 xtb: 6.4.1 (79825abcba525fcdf90b791dcacef51065a7a4e7)
C         2.69142483093689   -1.17145090990229    0.53491718819654
C         2.68362362125903    0.34707300396830    0.58036541920711
C         2.95337173165811    1.00056541421402   -0.83880767549937
C         1.45860254446920    0.80529537992165   -1.70806760329661
C         1.06212101597763    2.11861708675119   -2.36247556564898
O         1.90882883251401    2.44559204515676   -3.39370547510993
C         3.23756997282461    2.84016464101206   -3.15865441526280
C         3.53878615537225    3.47851900708490   -1.77287721155731
C         3.31890301552096    2.45211000373213   -0.56939061168129
C         2.29784038372871    3.06203551749954    0.37708591168663
C         1.46822698259297    3.62324943240537    1.21184103125930
C         4.55778599886749    2.43143793045319    0.31103749072012
C         5.68692561252193    2.46976649859401    0.96189150256386
C         4.20400573065193    1.69817202076866   -3.53655024205959
N         5.25574900601717    2.30473316822807   -4.49840735229209
C         4.92136772247367    0.99778256797861   -2.40761817715157
N         4.11188805055579    0.29023457424055   -1.42709905252087
H         3.67281247986850   -1.53133111110986    0.23282387447672
H         1.94079847448316   -1.58447077300620   -0.15090834637429
H         2.44942566796831   -1.53567072318161    1.54293313104144
H         3.41094679000118    0.66480801076691    1.33533481318678
H         1.69704300222425    0.67692058103990    0.92508396791930
H         0.65976548916214    0.48598746564711   -1.04354790281793
H         1.60148893915591    0.06747572326207   -2.55492693313540
H         0.99227728362968    2.89584789416172   -1.57847047545855
H         0.06279997259179    2.02784522589105   -2.82941206262018
H         3.43767907670540    3.62822102370363   -3.88963587606795
H         2.78979161155897    4.30888217768077   -1.61871838627853
H         4.64235876809132    3.81868043356015   -1.76687725766028
H         0.80874485863760    4.14409634051215    1.86804533288228
H         6.50247881980783    2.22028669771748    1.60543436553427
H         3.73028915203605    0.89640774571469   -4.10805354054894
H         5.88958092407223    1.55854269907883   -4.78515207901434
H         4.83449482389947    2.73424211679930   -5.32565156523210
H         5.53672159576290    1.68577531035890   -1.79758376341619
H         5.57728446162893    0.22385371864020   -2.82957432895136
H         3.77855876149269   -0.64658410007933   -1.73821863705111
