37
 energy: -49.854664229541 gnorm: 0.324720939770 xtb: 6.4.1 (79825abcba525fcdf90b791dcacef51065a7a4e7)
C         2.70750305004852   -1.49198784819875    0.18917983377056
C         2.94802305131464   -0.02072893089556    0.48173513552487
C         3.14326250346837    0.91670431599209   -0.78197729601140
C         1.74550190198845    0.73417593640225   -1.80228451565004
C         1.09243088523010    2.03978933220865   -2.22552581399462
O         1.74017459475631    2.66724572568901   -3.26185994786408
C         3.09884229828691    2.94364678240623   -3.02923561712800
C         3.46967613637670    3.45207227669345   -1.64362855131086
C         3.29390934307215    2.39590108276479   -0.45878574908751
C         2.14367122275272    2.89510400572806    0.40036764982399
C         1.32347434127215    3.06412172646587    1.39974026022626
C         4.48461506092189    2.59073698653242    0.46569836962849
C         5.55674411387964    3.10353620798315    1.00199354559148
C         4.04860649525807    1.81951651726207   -3.57162320583251
N         4.88685818900767    2.41267062180526   -4.73125752298023
C         4.97826257426718    1.27758095973597   -2.51252611579551
N         4.32744520056592    0.42926005457844   -1.52556733036741
H         1.98461063753922   -1.65849688230772   -0.60680832462926
H         2.28417557853723   -1.98156200965612    1.07546025802861
H         3.68003716636892   -1.95681422153403   -0.02396247423675
H         3.83666357912130    0.06977970325392    1.11581676396742
H         2.06652732876799    0.35240891238963    1.01531274064030
H         1.01796741356864    0.13488611898752   -1.26077745188892
H         2.03891784216859    0.16121874095028   -2.73373082655998
H         0.95282125627899    2.64938789875166   -1.31309576440740
H         0.06521372135343    1.91572613530090   -2.61839346592552
H         3.29274132025983    3.71250460164537   -3.78201130407602
H         2.73593973694463    4.29357834982970   -1.47701765753774
H         4.54901605201152    3.86032072496902   -1.59916665964688
H         0.56132024307597    3.40608290132646    2.06230041386574
H         6.37353075336523    3.41721778488923    1.61516405331221
H         3.58553121020676    0.92716791111645   -3.99955382548752
H         5.39916415278813    3.21476183765031   -4.36389130811635
H         5.46827408437401    1.67242252180837   -5.13157529394456
H         5.54046097009845    2.02744918722179   -1.92450656348889
H         5.74002641956660    0.62946619334647   -2.96739172238483
H         4.19213870996420   -0.55838848635876   -1.82851213131919
