37
 energy: -49.852830933929 gnorm: 0.328459861015 xtb: 6.4.1 (79825abcba525fcdf90b791dcacef51065a7a4e7)
C         2.57994284819296   -1.25405620104486    0.56139523663519
C         2.88226616340936    0.23412642424831    0.60560343039962
C         2.84736172121467    0.98193747084325   -0.79204780095887
C         1.25717541652930    0.87725601958509   -1.49092364218883
C         1.07533898987714    2.08692055598517   -2.39309242493156
O         2.01082762124090    2.10674830211725   -3.39894020528437
C         3.23718758824742    2.76819723479664   -3.21181433088835
C         3.46133367606020    3.31652742866363   -1.82613524407641
C         3.21509082371988    2.42284514732890   -0.52577357783299
C         2.24298950408695    3.09274452135525    0.43164465128559
C         1.45365903574175    3.71227205172652    1.26421812785322
C         4.51050268159761    2.49805487641967    0.26584730567895
C         5.68084856102451    2.59715190388150    0.83198031167738
C         4.40071525481062    1.75396695702984   -3.60866500931056
N         5.56823141768799    2.47104845594356   -4.33112578798042
C         4.91790878900790    0.96633804765128   -2.42892233849398
N         3.85107455421063    0.33450250112895   -1.66737929044140
H         3.30172786556378   -1.86064737342685    0.01828439604333
H         1.58266734949377   -1.42928506999738    0.13817139354307
H         2.59890677188696   -1.61446707883969    1.59921033435300
H         3.86193306914355    0.41509955233303    1.06105352962795
H         2.21275728385520    0.82071712505421    1.24485363939132
H         0.50211883083312    0.72898753551259   -0.72307559316725
H         1.35258142636911   -0.06522361436065   -2.11108081980845
H         1.04557754571814    2.96466701454973   -1.72055598183419
H         0.14386910343567    2.09125066368802   -2.99080211323817
H         3.23375110964738    3.59332984307081   -3.92913906988379
H         2.82426056625220    4.24596026522206   -1.75865771069827
H         4.56017403310563    3.67027702505427   -1.79405099266083
H         0.93010383431962    4.16708257854952    2.07405736122937
H         6.49182666079419    2.75216617537523    1.51006563764516
H         3.88949173652939    1.09039755426626   -4.31021723962328
H         6.23880501991219    1.74558329907048   -4.58567834652181
H         5.16772652801701    2.78301696814053   -5.21912212324554
H         5.50687549082813    1.62764411242649   -1.76565097494523
H         5.60900019178513    0.20930572927951   -2.82456658338433
H         3.32783569302023   -0.28068410283131   -2.32563423787424
