37
 energy: -49.852958339165 gnorm: 0.325047756022 xtb: 6.4.1 (79825abcba525fcdf90b791dcacef51065a7a4e7)
C         2.54040436385017   -1.25058161034179    0.48986718468241
C         3.06943168081705    0.17238794670045    0.54756480332560
C         2.93717696784387    0.94357667327843   -0.83143675031330
C         1.26038031876071    1.04526835670494   -1.28540803846985
C         1.08828421802551    2.16232242226723   -2.30169266197244
O         1.97913250855931    2.02283342311522   -3.33812597798462
C         3.23052999034655    2.65698682567256   -3.24678400137870
C         3.49784133673867    3.33329095284779   -1.86040508233062
C         3.36270466038555    2.39634437574361   -0.57428176650322
C         2.27185853335225    3.03476681632533    0.27003292858960
C         1.31027066306804    3.43049429152774    1.05666118578507
C         4.62807672086519    2.52697539580494    0.25769241608712
C         5.65760214061621    2.86013433527785    0.98509791176715
C         4.36781716608612    1.74953202468745   -3.62986562432324
N         5.54405207381572    2.66607976478095   -4.04898508861646
C         4.77959974861339    0.85126441998194   -2.48829143263765
N         3.74972413285275    0.12536139979967   -1.76047258305888
H         3.15941782358713   -1.74003903662582   -0.25923201529723
H         1.48820953394636   -1.26165074127129    0.17818543601550
H         2.63993089021252   -1.88077550106551    1.38444302771140
H         4.12920797737113    0.18845618216095    0.82424029058210
H         2.49458275815132    0.72149851583937    1.30188431039618
H         0.65003444067943    1.22248345501412   -0.40350252459180
H         1.05000940305411    0.03758526339605   -1.75687803046724
H         1.16251965899435    3.11115343780202   -1.73792084674925
H         0.08043264973512    2.14924092495034   -2.75883143893169
H         3.19206764125118    3.45346333815764   -3.99481891002904
H         2.82202182632015    4.23291222024416   -1.76979424879773
H         4.55447209770552    3.77367689045473   -2.01275323740209
H         0.56429153288847    3.98334710902142    1.58075196308009
H         6.52034011785150    2.82848801185479    1.61453915871192
H         4.11450841519859    1.19769026727802   -4.53824589782642
H         6.46012308043976    2.23325976562170   -4.16834343162407
H         5.26333371551885    3.14451511850019   -4.90838186911016
H         5.35956980794143    1.49927134467994   -1.80428986487388
H         5.40532444289152    0.02397034223632   -2.85063483671177
H         3.11831697144672   -0.45337628517158   -2.35370165171221
