37
 energy: -49.853200677122 gnorm: 0.321661123421 xtb: 6.4.1 (79825abcba525fcdf90b791dcacef51065a7a4e7)
C         2.67339298337222   -1.29390678770750    0.34959773920787
C         2.62615545711448    0.21336904326564    0.53379725846483
C         2.96805816765017    0.94248235004174   -0.83198638771513
C         1.54681403377604    0.76924474111459   -1.82099193558862
C         1.06203843945001    2.06465603116990   -2.45120102922150
O         1.86345107313765    2.55661234086163   -3.45268924979019
C         3.19177647749520    2.85070700242865   -3.09835959789762
C         3.33209428614402    3.43441554751328   -1.72788381889263
C         3.32658566010637    2.40775780490536   -0.50469636794020
C         2.44111256825851    3.03609973451129    0.55903277659376
C         1.51965158238882    3.42973052024326    1.39329890045981
C         4.65846004936096    2.42433909194925    0.22759298065431
C         5.62531924528703    2.73813238529020    1.04414261088021
C         4.17707930069180    1.72885554182974   -3.47213154666265
N         5.25661629651415    2.31481180911192   -4.41579704398232
C         4.99011207330271    1.06407784686491   -2.38737832732369
N         4.16874551275854    0.32523276247500   -1.44040199671939
H         3.67923198611952   -1.62724205202910    0.10247155898628
H         1.91790051669349   -1.58368909862058   -0.39177891487712
H         2.33253533523505   -1.81046449215498    1.25750743181338
H         3.32085340733201    0.55210249722774    1.31006249484021
H         1.60067784084240    0.52792488181848    0.75834547743037
H         0.72993671589976    0.49147691904791   -1.15974984541696
H         1.76318857225753   -0.00750013511630   -2.61585956498216
H         0.90943610163830    2.76881280492714   -1.61185269823789
H         0.10911637418421    1.89059750445988   -2.98650929310006
H         3.43560844128872    3.64034322703314   -3.81420247033117
H         2.60103437648249    4.27180818071468   -1.53145125653852
H         4.33623893487749    3.99177440017123   -1.60679316985863
H         0.98561101299894    4.06306681798413    2.06448299390079
H         6.52647439806452    2.81946458385500    1.61231431157793
H         3.60936761004928    0.93426315381957   -3.96220882932341
H         5.74280592197212    1.58868443749881   -4.94222305319812
H         4.91252054380871    3.06282600910551   -5.02270632901995
H         5.65440346855241    1.77381283379641   -1.85905117555136
H         5.76043564826559    0.36653352864385   -2.74413194042840
H         3.89289372096309   -0.54563681535953   -1.94142595488061
