37
 energy: -49.847292005012 gnorm: 0.318000894208 xtb: 6.4.1 (79825abcba525fcdf90b791dcacef51065a7a4e7)
C         2.66598263710181   -1.33965985351459    0.62275232523367
C         3.09006374167668    0.10936313846406    0.45384743585842
C         2.96771749733307    0.87174266046081   -0.93095489836100
C         1.36301700487264    0.81277330602393   -1.60143015786032
C         1.06630564702068    2.05454722603987   -2.42618538774449
O         1.95184929857237    2.23536398424288   -3.46077690930181
C         3.16438694428274    2.87354411785642   -3.14618490909122
C         3.30616265811877    3.41881375649679   -1.74868806716477
C         3.20517967635789    2.33723771706211   -0.57811567132000
C         2.02818184637600    2.67483582603148    0.32249495338784
C         1.50215180978365    3.24987766676125    1.36779626209607
C         4.37820449505807    2.49883419477063    0.37493800871216
C         5.58342683156373    2.72561615549236    0.81770811237251
C         4.35522540928426    1.99698075809118   -3.58961319462500
N         5.44470269704712    2.87439295600511   -4.25477221127544
C         4.91319509616577    1.11353208682202   -2.49973728750970
N         3.98506756732624    0.23783710598910   -1.80042559309661
H         1.57945354335013   -1.28983725640797    0.59328906353390
H         2.94246256207465   -1.62237762677646    1.64647665807752
H         3.16306219414790   -2.07764489223676   -0.02192263502947
H         4.16084400505498    0.25189297658375    0.63563903171053
H         2.51666404874452    0.56584291459459    1.26859317849416
H         0.66084216990597    0.62802026826482   -0.79241752964017
H         1.38336882526543   -0.08383122032255   -2.29255331478532
H         0.84401720373728    2.91358506471084   -1.76567672366327
H         0.11386998163926    1.85990729724915   -2.95523488595853
H         3.25786934450038    3.69359585269498   -3.86325297055495
H         2.47688078841890    4.15739132287945   -1.54606644526861
H         4.32248036264751    3.96718661448789   -1.75064600538182
H         0.74541456615785    3.55126269275327    2.05577743475284
H         6.37174861469069    2.91539720616700    1.51344261902585
H         3.94190864364166    1.43526127394425   -4.43073734829004
H         6.06695776727687    3.19318209803149   -3.51184707013921
H         6.00229110541768    2.31938825573813   -4.90847777202647
H         5.40918838138704    1.75093128716960   -1.74353010111300
H         5.60447250258085    0.39842735197830   -2.96664240818922
H         3.53727938126472   -0.49024528807889   -2.39617286050424
