37
 energy: -49.856647399994 gnorm: 0.322758094532 xtb: 6.4.1 (79825abcba525fcdf90b791dcacef51065a7a4e7)
C         2.59172376686694   -1.40876052340122    0.46320757334968
C         2.94648911508396    0.06678855259115    0.53347669613538
C         3.02942678693596    0.87538624298591   -0.82783141143366
C         1.45846770253927    0.80265479536768   -1.57273128592702
C         1.02703604281087    2.06647730353389   -2.29859675561757
O         1.81187906277614    2.39997061503410   -3.37566013414781
C         3.12628127935268    2.86044956840466   -3.18383860602448
C         3.32326498966330    3.40792533517960   -1.75845563713275
C         3.32987736368534    2.38417419593624   -0.53283991813830
C         2.22984842401755    2.79687815805006    0.43152908908009
C         1.30599304363768    3.29340925547351    1.20611517626833
C         4.63795263490642    2.59065099882400    0.21329572336814
C         5.82174009099689    2.68486208959714    0.75163370545179
C         4.30062177469738    1.89653507571451   -3.60466811164870
N         5.38059563302471    2.72880651365348   -4.33967162341735
C         4.90916290776359    1.12886214001276   -2.45575681253285
N         4.04234681083600    0.23764913538332   -1.69966919131548
H         3.35754904777114   -2.00306460774882   -0.03096865164238
H         1.61177572280261   -1.49855163708905   -0.02261274840550
H         2.53356556985208   -1.66544968858592    1.52999907354618
H         3.89521079599672    0.17989367964424    1.06926370100311
H         2.11176211784939    0.49224683772374    1.10197270094625
H         0.68776717982381    0.53374911238846   -0.85482108588495
H         1.44295056986021   -0.10078517938548   -2.25502192977964
H         0.87783550451420    2.90912785191350   -1.59766230143016
H         0.01433778069243    1.88981508485313   -2.70865097285779
H         3.24008617635429    3.71387100527983   -3.85773081424353
H         2.50956517862840    4.15088868789138   -1.51318264886441
H         4.32307765955275    3.98252879234491   -1.69661876000933
H         0.55293773981051    3.67629256925039    1.85658449140843
H         6.75458507152181    2.80021820910490    1.25957839586881
H         3.83435896217449    1.24421252569842   -4.34691042396446
H         5.79560440629649    3.34255079157720   -3.63835048847132
H         6.16847696746785    2.14788594432229   -4.63638749030407
H         5.39098865964938    1.85111300356879   -1.76994778386721
H         5.67523920744665    0.49566014779166   -2.92418179766927
H         3.55991246531409   -0.39770704520150   -2.36982787807658
