37
 energy: -49.851560601198 gnorm: 0.327727736439 xtb: 6.4.1 (79825abcba525fcdf90b791dcacef51065a7a4e7)
C         2.69963192637699   -1.39329967566933    0.46218228115699
C         2.90098396932697    0.10970716868791    0.55420976700813
C         2.88344019312435    0.97879368604068   -0.77178023569563
C         1.23320956106499    1.03201887848471   -1.32131100933797
C         1.07578673821529    2.00203905364183   -2.48085411067015
O         2.04443745555003    1.89290604304185   -3.44887665687359
C         3.20191424775111    2.64779084352294   -3.19025344522381
C         3.30569341796283    3.32379187101740   -1.79815334913908
C         3.24328100962421    2.41162986210610   -0.48883704758215
C         2.22397645867177    3.09454785717835    0.40840154200128
C         1.51698304584396    3.93955849017960    1.10564817337048
C         4.55092835440084    2.44487573419032    0.28534968929668
C         5.76031268290091    2.56684145953363    0.75710193607227
C         4.40606201985317    1.83317594739718   -3.58714874014510
N         5.58947324661508    2.74599931930136   -3.99401579884745
C         4.85952466882737    0.92592030056312   -2.46871231489960
N         3.76848960833382    0.29446527973499   -1.74193428148200
H         3.29779008881175   -1.80619253048771   -0.34752269600120
H         1.63304541857642   -1.53226515607663    0.24432036430035
H         2.99392189444658   -1.73215067194427    1.46512257115525
H         3.92922114634087    0.21020695738557    0.91829960818627
H         2.26958021752433    0.53228711513160    1.34397372594343
H         0.68056907303492    1.38586372136957   -0.45466982897028
H         0.89908897951545    0.02011029997177   -1.70389375564177
H         0.95411873609466    3.05058776753884   -2.15013920594678
H         0.14115287487909    1.72735761960914   -3.00613634145048
H         3.11666861855360    3.47123566847984   -3.90445384759832
H         2.51017818506682    4.11645128758842   -1.68366611445255
H         4.31938755713570    3.87691313546709   -1.80812154236522
H         0.87687083551594    4.49168942323838    1.75542510320245
H         6.59027173865245    2.55235762750786    1.42976290680658
H         4.02557767246242    1.12291684690116   -4.32512776514395
H         6.34028479873158    2.08643739482800   -4.19901759369406
H         5.41743691851913    3.16549832805721   -4.91090733777867
H         5.53325782335189    1.44320630377478   -1.75974460319821
H         5.44381540543956    0.11662704334679   -2.92793816946497
H         3.19163297120440   -0.20017387559804   -2.45474671513922
