37
 energy: -49.859788967624 gnorm: 0.320271392393 xtb: 6.4.1 (79825abcba525fcdf90b791dcacef51065a7a4e7)
C         2.36030695244781   -1.27811683368298    0.41000767712764
C         2.78775148631445    0.16482004041186    0.61801158414118
C         3.00111817918897    0.89554267527799   -0.77281109728977
C         1.53533518069078    0.78651967202596   -1.70430039795177
C         1.14058612874261    2.10532342730742   -2.34865366299083
O         1.92681476700845    2.45343012077474   -3.42006774468067
C         3.24918673836348    2.83484446351559   -3.13310952369076
C         3.48736267854065    3.35339696241891   -1.73981971854926
C         3.34281564826890    2.37758532931935   -0.48397664844864
C         2.25232861464412    3.00031040139122    0.37243871309303
C         1.55152244746758    3.65393070603177    1.25656919006718
C         4.64300103147612    2.55534697646735    0.28305054710120
C         5.58538703895639    2.91081064769800    1.11105442165476
C         4.23951275881347    1.72337667443576   -3.54742036852699
N         5.32192208221512    2.25473903170560   -4.51968244495238
C         4.94162452428825    1.04951215593055   -2.39304309073275
N         4.10473739749592    0.24510963557820   -1.51562883359705
H         2.93924380714376   -1.78318271467001   -0.36047036993271
H         1.30757084828642   -1.34051735911905    0.10630573840317
H         2.38779773885350   -1.78162480872076    1.38624524247862
H         3.76157395151155    0.24466936151307    1.11321578882062
H         2.02646136518552    0.71984439975082    1.17779451684221
H         0.75481178544184    0.47534778638740   -1.01463388117043
H         1.69789742519404    0.05021304218892   -2.54892525878074
H         1.16125847673821    2.93898457791029   -1.62187199266036
H         0.10114557124205    2.05902425343606   -2.72592211455937
H         3.48199411767896    3.67229718571009   -3.79634709350813
H         2.86435526432204    4.28673398186573   -1.61732675039615
H         4.57861747485188    3.73117545567341   -1.74786233588321
H         0.83583497701415    4.20612124947827    1.82197105457311
H         6.51105887264031    3.06651612782665    1.62135045822368
H         3.64751540032731    0.91142116441847   -3.97650864274795
H         5.82671730528979    1.44494019411506   -4.88047778900816
H         4.78717527828560    2.57621617871723   -5.33021579425495
H         5.39517735418275    1.80565843688785   -1.72471007409164
H         5.75703170465727    0.41093187740156   -2.75987545656229
H         3.80153144320285   -0.59277197833959   -2.05558585936179
