37
 energy: -49.856915467215 gnorm: 0.316629450219 xtb: 6.4.1 (79825abcba525fcdf90b791dcacef51065a7a4e7)
C         2.77086182582340   -1.42838805413771    0.38648905208805
C         2.74228072637630    0.09028403076316    0.41580622805867
C         2.97680503325958    0.92052603832865   -0.91444382525195
C         1.55274982206134    0.64459196371122   -1.87569575538780
C         1.05848609977129    1.98300811778312   -2.39972520164599
O         1.81248617614316    2.50804498547188   -3.42103908510273
C         3.14352892711500    2.86647584072294   -3.14473839895113
C         3.27101520965665    3.39616816792711   -1.69511715260770
C         3.21950934263738    2.37997814652940   -0.46428449961299
C         2.22107063367661    2.85119180464280    0.58045167481318
C         1.64520171956095    3.49187478135596    1.55919366497134
C         4.52994429894016    2.46901718751408    0.30072811262495
C         5.49867796802538    2.95389334284962    1.02632200309862
C         4.21380930569149    1.81479407958265   -3.54487763161263
N         5.13173178824041    2.56049964462156   -4.54517307280800
C         5.01333652187034    1.14294837253908   -2.45445532967880
N         4.19208904684431    0.35728408778782   -1.54583908898955
H         2.01777878508071   -1.91878061469919   -0.22692509606845
H         2.54031959795300   -1.77958026769579    1.40034126443430
H         3.75297868375001   -1.76531946504145    0.02699008130356
H         3.55604807963444    0.39444622661104    1.08304034405148
H         1.82906788498267    0.45465802525491    0.89979539963585
H         0.79567996073355    0.21020190092508   -1.22774890897938
H         1.83942151149422   -0.08431518209664   -2.69330128821349
H         0.91533965621777    2.64701481950955   -1.52666503641427
H         0.05578273275118    1.79307037108827   -2.82800242589477
H         3.27416156336783    3.76168123479416   -3.75870324205521
H         2.46285788155417    4.16986391598981   -1.54499258573819
H         4.25867976778930    3.99445090465321   -1.70907392640456
H         1.09951404464972    3.82268656514938    2.41335453141305
H         6.45101358426331    3.07326579727908    1.49570639698679
H         3.76923410103002    1.03417764016666   -4.16684244709509
H         5.56573694333093    3.33180969979505   -4.03774231000528
H         5.88648914775664    1.95538878393715   -4.87751052966842
H         5.57242342274679    1.92987455758825   -1.91380257104923
H         5.74608195947299    0.47664970970364   -2.93023872802116
H         3.83595106477226   -0.40915767023146   -2.15515494194627
