37
 energy: -49.853192716156 gnorm: 0.315290848680 xtb: 6.4.1 (79825abcba525fcdf90b791dcacef51065a7a4e7)
C         2.99419163897120   -1.46543658942157    0.24987227049837
C         3.07758257285815    0.02996835801850    0.50453140111548
C         3.12300378244508    0.92855495526468   -0.80097527710626
C         1.59805409075386    0.77242228013069   -1.62452197080062
C         1.07908183931772    2.03528741608475   -2.29242970373131
O         1.80420577427210    2.56013320020319   -3.33454009036676
C         3.14275899565610    2.89431229243930   -3.06419002120915
C         3.32652847966868    3.41098252686652   -1.60449976945255
C         3.21829320252431    2.43294086849339   -0.34673840885700
C         2.07924805075596    2.90563585713464    0.54181739231519
C         1.06152116136053    3.48952795671597    1.11044511738107
C         4.46169517416175    2.61501200177270    0.50837188146869
C         5.48651535743481    2.66125772315297    1.31313344073317
C         4.18087908470078    1.81484626599548   -3.62637040705508
N         4.90930357344801    2.39383089444817   -4.86468539426740
C         5.03503308923872    1.24020103625684   -2.52190446531931
N         4.25504026570939    0.41909213381264   -1.60829042103665
H         1.97026531961562   -1.80095426873901    0.09854935002212
H         3.54033902795254   -1.99009249974503    1.04412739540488
H         3.47482937003486   -1.73597912558719   -0.70044868363827
H         4.00180169560632    0.23734067775560    1.05475776025578
H         2.24609553955837    0.38490573399254    1.12390236614673
H         0.88058800675971    0.44017514932582   -0.87850663604120
H         1.73656069162855   -0.07902048737802   -2.35788833706357
H         0.80745580300222    2.80482172612940   -1.54565925816701
H         0.11015491415690    1.76079776889184   -2.75150248435125
H         3.30219987204812    3.77940243631317   -3.68596526673235
H         2.59733895703024    4.26690096475549   -1.50476498578012
H         4.37311299235261    3.88979535494939   -1.50953956770794
H         0.38011867997095    3.97650170433712    1.77025530677518
H         6.36220103581197    2.97199137562454    1.84051734857791
H         3.57484886660098    1.01722761175548   -4.06269737954915
H         5.69635468697574    2.93632093234777   -4.50828567714444
H         5.37538605047923    1.60482204918546   -5.31910609955341
H         5.59611804666447    2.03837980035535   -2.00014712716692
H         5.81006726371424    0.62636794784330   -3.00124838621675
H         3.95893432991760   -0.44672987675585   -2.10649375315997
