37
 energy: -49.852528402832 gnorm: 0.317093762028 xtb: 6.4.1 (79825abcba525fcdf90b791dcacef51065a7a4e7)
C         2.75125206543797   -1.35485339533305    0.43233528942435
C         2.87338935585210    0.15055109626060    0.59628978481368
C         2.97492697287083    0.93570848930370   -0.77742293134726
C         1.53480212648415    0.79276122650110   -1.74369651487754
C         1.11498964541876    2.12531041350850   -2.34230442846475
O         1.84396402380932    2.66151811369986   -3.37590954362400
C         3.20465562994223    2.90160503875584   -3.11635959947233
C         3.44450253622520    3.39965066037301   -1.68739477519791
C         3.27743851989924    2.43541905135533   -0.42541576645332
C         2.25450035641369    3.02491768370806    0.53191628805732
C         1.19157427906954    3.55838022615915    1.06637054352239
C         4.64887944407139    2.44442656439392    0.22993191656394
C         5.75914398787839    2.34365497950750    0.90609310693769
C         4.14263265582893    1.73575071573909   -3.57428856523570
N         5.13400993270313    2.36575068367281   -4.58400168226152
C         4.90689692242352    1.07503389572331   -2.45223926389571
N         4.07951914141920    0.30511527257917   -1.53574017621950
H         3.68423905682965   -1.77413726973185    0.06134721218140
H         1.89335726376794   -1.51889067165077   -0.23211205946027
H         2.44126272670175   -1.78192637095670    1.39609412422479
H         3.75134639507289    0.35237989779025    1.21949912712278
H         2.03476203953057    0.54561379558809    1.18075647137938
H         0.70641404746868    0.53719051521061   -1.08784483998612
H         1.63705386851412    0.04413523628014   -2.58694546986983
H         1.03854922559674    2.82521878643445   -1.48912508734714
H         0.12213180150518    2.00340583595996   -2.81589111159581
H         3.43303899335044    3.76859234469443   -3.74212669868607
H         2.78939956709125    4.28435492380586   -1.43759639563172
H         4.51295557859262    3.83784568176727   -1.68400007460247
H         0.40303641558038    4.09581894824104    1.54194377968242
H         6.70391663260540    2.36675962097387    1.40447589412975
H         3.50167081867570    1.00639723367616   -4.07534823364898
H         5.49306506335684    3.15653200911006   -4.04873542759002
H         5.93654634276691    1.76578033258803   -4.78951785933669
H         5.32305904208721    1.87425287138266   -1.81021550421570
H         5.71719879508815    0.47439244244425   -2.88799188448175
H         3.69433812537056   -0.49670976878243   -2.07818393119440
