37
 energy: -49.854822060364 gnorm: 0.329302451888 xtb: 6.4.1 (79825abcba525fcdf90b791dcacef51065a7a4e7)
C         2.62656581542300   -1.31256388213986    0.31412441776768
C         2.70044443808539    0.18192901459459    0.57694414357014
C         2.98671482285677    0.98334451749197   -0.76083427774625
C         1.54512219388685    0.83397449555629   -1.72394248554831
C         1.18148677808468    2.19457237357748   -2.29561021063287
O         1.90561223597278    2.59435715725712   -3.39245857030687
C         3.27097716357281    2.84087465797006   -3.16552843039276
C         3.49236661609645    3.41219427483121   -1.71878350147957
C         3.31656477116604    2.42513581472648   -0.47578175021375
C         2.34290278737517    3.03855739028183    0.51723997830638
C         1.46479382705349    3.79842557643709    1.11016541775516
C         4.61532334709875    2.40205846949256    0.31358867010525
C         5.55687483746363    2.90049551381804    1.06530511857206
C         4.12106817837332    1.61037017886308   -3.50004544808265
N         5.16982798664770    2.09285108041646   -4.53279153864073
C         4.93836083232036    0.93729860164026   -2.42364004593304
N         4.13648335316230    0.29633845081365   -1.39239717934450
H         3.57869966966117   -1.68428423750727   -0.05891840538060
H         1.85204279168581   -1.46913204185160   -0.44744140030058
H         2.40371688634289   -1.90012087671978    1.21547392889529
H         3.46891917523292    0.55786812152854    1.26108570670789
H         1.75361930511851    0.56227959901527    0.97672811058586
H         0.79001678900864    0.43471625564321   -1.05156364684480
H         1.81514531597116    0.03505315720651   -2.47944053367130
H         1.13374081002273    2.91628057735821   -1.45865892920526
H         0.14365641752915    2.12480164954283   -2.67370009338840
H         3.57523372348402    3.70427993659544   -3.76333248055246
H         2.84060489838876    4.32986290652704   -1.63304139066986
H         4.56250794696404    3.84345437981975   -1.66948276158775
H         0.73533370246173    4.26896459099129    1.72926413351085
H         6.38872373127234    2.88900469996594    1.73568562332701
H         3.39245547038690    0.96736358813965   -3.99956062885779
H         5.81274423479061    1.34929975565556   -4.80584058224852
H         4.70867990644242    2.37435835440612   -5.40133175849771
H         5.62274182969406    1.68562558799861   -1.98118579882584
H         5.63050344054822    0.20587224646832   -2.86317812550837
H         3.79661826006956   -0.61044022902853   -1.77681515973787
