37
 energy: -49.851525487595 gnorm: 0.317219018416 xtb: 6.4.1 (79825abcba525fcdf90b791dcacef51065a7a4e7)
C         2.88465109095220   -1.44307654439232    0.34773341370835
C         2.82452518957284    0.06419147562783    0.52820299271850
C         3.01366813359025    0.89014931573472   -0.81190418150964
C         1.62355686609574    0.73426518075652   -1.84697371095386
C         1.09458323575382    2.05109806276409   -2.39139941552297
O         1.79934819310138    2.54649845568734   -3.46151468099410
C         3.10309912709248    2.97725350872755   -3.15956578073968
C         3.28243027545345    3.40990654316434   -1.71316599914562
C         3.17985038612999    2.38035908585725   -0.49671483595699
C         2.06435955911420    2.84244299852964    0.42662398118361
C         1.71117138445122    3.52780316145222    1.47808732520499
C         4.40135620249004    2.56004556015355    0.38987886836348
C         5.55836393884613    2.65947630223877    0.98273878453110
C         4.10923232703955    1.84461425054805   -3.56471725465486
N         5.09876700993707    2.49544957787867   -4.56295767221235
C         4.88814924054857    1.17780579240754   -2.45643202892915
N         4.24614286923982    0.35989101408881   -1.43852118291554
H         2.08730302775182   -1.88643251516280   -0.24519777625312
H         2.79868474960412   -1.91015017818053    1.33709381662237
H         3.85653534902410   -1.76762566634868   -0.04903435779861
H         3.60933225995342    0.43839454018823    1.19452366678423
H         1.83450245619355    0.30640661376290    0.93089199650991
H         0.81440539784028    0.21151513488363   -1.34329632614627
H         2.02166473913037    0.12198560028662   -2.71218404868083
H         0.80481786239690    2.82625607753829   -1.65737221127476
H         0.13172448574612    1.70113263398310   -2.81013441128736
H         3.28127429947909    3.88824983414676   -3.73727653430775
H         2.52979534558779    4.23824363852711   -1.56599573110617
H         4.31037702899658    3.93556108326761   -1.68804451857426
H         1.03301580363200    3.94782526934333    2.18553961053795
H         6.22666457448756    2.81082218020001    1.80248468377172
H         3.57408444443233    1.08193191689153   -4.13549021417135
H         5.79009598798327    3.01031064528167   -4.01729479071081
H         5.59811790561588    1.83952065097028   -5.16849209442295
H         5.35372002420896    2.01226501911118   -1.89870626027649
H         5.75143640644757    0.68415853351072   -2.92364427115888
H         4.15087010090400   -0.63361752543992   -1.73751436107252
