37
 energy: -49.855986027420 gnorm: 0.311023876555 xtb: 6.4.1 (79825abcba525fcdf90b791dcacef51065a7a4e7)
C         2.80975299682930   -1.51413900856514    0.33307722489788
C         3.09722655691731   -0.02565399559997    0.43213576923837
C         2.95366878688136    0.88499812814671   -0.85781481937505
C         1.29359714354282    0.85344279855710   -1.37862623450207
C         1.01810219902979    1.85483703978682   -2.48838900078991
O         2.01390491503305    1.90825765457898   -3.43326204219312
C         3.08821374230331    2.77345452012802   -3.16162905562799
C         3.21332616646898    3.36229254771592   -1.74913472876389
C         3.21251452819430    2.35902300686814   -0.50668007713133
C         2.21604251479663    2.86941109832425    0.52139742505055
C         1.71363898465317    3.65905338330798    1.42919214299925
C         4.53371293147757    2.49040273279001    0.23331054710454
C         5.45192123098353    3.04048898282790    0.97784723343638
C         4.37784994244348    1.99112912176578   -3.60455192379907
N         5.39294320891811    2.93604349968082   -4.29445910732030
C         4.87569989167972    1.11298888580797   -2.48176237382681
N         3.82746485788669    0.29145435923205   -1.89560233487293
H         1.77038823015286   -1.74637475287022    0.11017974291709
H         3.06527760887445   -1.96275166084647    1.30149648267265
H         3.38293963082107   -2.05458241209083   -0.43288218540091
H         4.13948526155964    0.05166818463700    0.76023847389090
H         2.46126420746861    0.36871747493374    1.23275718579986
H         0.78079255511784    1.06899861817159   -0.44468203938277
H         1.04972378367612   -0.16801862162790   -1.80183710745223
H         0.74089477575774    2.85361978641757   -2.10210034517703
H         0.10043922408678    1.60856319804121   -3.05597655313522
H         3.12828045438439    3.63111424834760   -3.83855213907959
H         2.32146629232526    4.02967198918644   -1.56623746607962
H         4.13435293681888    4.05517720681404   -1.67675489226960
H         0.98728174719063    3.99184374957248    2.13520772350111
H         6.39418135140944    3.02816914996309    1.48134369819703
H         4.12985039291987    1.36576515338977   -4.46551969330551
H         5.78048740769120    3.55584725988244   -3.58282827066195
H         6.23204627863060    2.40841048022769   -4.54699711599765
H         5.30332046946332    1.68208198592002   -1.63476174018788
H         5.62010433946590    0.41474553342832   -2.88865039926005
H         3.26449127247383   -0.18249757073217   -2.63314104519630
