37
 energy: -49.854593926958 gnorm: 0.326439961636 xtb: 6.4.1 (79825abcba525fcdf90b791dcacef51065a7a4e7)
C         2.82547952884883   -1.25704932423005    0.39715469814403
C         2.91479679355373    0.25410614142847    0.52550134743053
C         2.78771758241186    1.01457983579841   -0.85992251560797
C         1.13465007864871    0.99893236830721   -1.40324665094629
C         0.96833573864564    1.95018743679841   -2.57700753979624
O         2.05462218569650    1.92918294293682   -3.41772297461685
C         3.19209366554543    2.72702152950419   -3.20300973703156
C         3.37899131293518    3.38592823229197   -1.88902450634966
C         3.28685069504754    2.43076403203464   -0.61253890847284
C         2.37849165477375    3.01725893248019    0.45577916315276
C         1.68997587369985    3.50237715808171    1.45108908155611
C         4.60914887758237    2.52081578669886    0.13165881005323
C         5.57291328024833    2.90053219023092    0.92349840839775
C         4.36752576024869    1.77691063067793   -3.58084583003973
N         5.59465688376746    2.67418874288128   -3.87798323669620
C         4.77421089589587    0.88381031395885   -2.43340509310827
N         3.64786664210368    0.23507829416351   -1.77934496982214
H         3.60999841595291   -1.64724776379888   -0.24795857905511
H         1.85463567574836   -1.56026413851747   -0.01504062870609
H         2.95380699315800   -1.65583621652261    1.41293857512035
H         3.91742510275335    0.42437950951272    0.93253545641943
H         2.16537099714124    0.63991422236526    1.22584749050524
H         0.39515219567244    1.16703422798377   -0.62442108434386
H         0.92404044761616   -0.01913869318450   -1.85173298198264
H         0.84446050247095    2.98501204670426   -2.20630171443067
H         0.12146936020417    1.59810831127165   -3.19649878033230
H         3.19871029204206    3.51536019367489   -3.96056421205135
H         2.69403883601507    4.26981227948999   -1.73459049574475
H         4.47527223268644    3.74376845406867   -1.95015414609206
H         1.22944190390984    3.74329496480890    2.38203987454942
H         6.43667074138671    2.93360380392536    1.55146651989703
H         4.05954239822061    1.24823740729081   -4.48610835625503
H         6.35308320338934    2.07299982323990   -4.20067047769278
H         5.36642648452825    3.25629855867069   -4.68750473605331
H         5.30193809996214    1.38502662984068   -1.60008487155319
H         5.46723610763889    0.09393076313004   -2.75441284634962
H         3.10023211826507   -0.34787900488414   -2.44702023157207
