37
 energy: -49.851425041216 gnorm: 0.320112428721 xtb: 6.4.1 (79825abcba525fcdf90b791dcacef51065a7a4e7)
C         2.66316401931759   -1.38859434133000    0.30540837866055
C         2.68546380034458    0.11252372988418    0.53819268561183
C         2.93238460569690    0.95539428917359   -0.78183306495043
C         1.51001979513789    0.72855849630924   -1.75830733494988
C         1.11178719434492    1.98554706778561   -2.51438392891420
O         1.95660523658512    2.53280183704465   -3.44929385457451
C         3.26439925010572    2.90298562199389   -3.08994954112308
C         3.44756595288658    3.44975774346637   -1.68537502912896
C         3.24142359593943    2.46966676392832   -0.44152174023391
C         2.22018133003654    3.05529276298846    0.51998864430511
C         1.52973617608707    3.75087679800356    1.37992109758700
C         4.55003441727960    2.57243739494996    0.32489057783624
C         5.73791506827648    2.53417134421202    0.86109158162821
C         4.15144245990888    1.77257505456984   -3.52277134539310
N         5.31514598224849    2.33456914402663   -4.37670705661179
C         4.87814940157951    1.14911397978264   -2.35536630463333
N         4.10890428108911    0.33158788926727   -1.42950870632795
H         3.63120263080777   -1.69125544079531   -0.08853749631673
H         1.82098523008537   -1.64661009795374   -0.34922491905507
H         2.46784761595583   -1.96506422591811    1.22020331907894
H         3.51047689188861    0.41741176078309    1.19113219242276
H         1.80061475919018    0.47990518795244    1.07021210103398
H         0.66773448440398    0.50171041575816   -1.10963174500683
H         1.70173891387005   -0.19397144633923   -2.38611891211766
H         0.88887432158344    2.78626304430812   -1.78445678706165
H         0.15696634325143    1.79887710158241   -3.04200428168795
H         3.50362117311043    3.71132602555145   -3.78620314098522
H         2.69112423805657    4.28540142931031   -1.62408619867513
H         4.51173190130886    3.88120679071376   -1.56281541969967
H         0.91773829488770    4.01761816236080    2.21125128663892
H         6.63551783077037    2.73888291553721    1.40323272497287
H         3.65147407062587    0.96666245466571   -4.06534471445706
H         5.79134547957423    1.53687117338648   -4.79822531396337
H         4.84390056181091    2.81494292240322   -5.14705424941672
H         5.38134015434400    1.91538675654600   -1.73588144865531
H         5.71122474242414    0.60059881203810   -2.81618754306750
H         3.81232788505406   -0.50508609654279   -1.97499209026146
