37
 energy: -49.853248122174 gnorm: 0.326124121705 xtb: 6.4.1 (79825abcba525fcdf90b791dcacef51065a7a4e7)
C         2.68854513785194   -1.39135404494497    0.40855258447419
C         2.86518847342150    0.11379852665571    0.51510841837812
C         3.00827922291213    0.95704837491916   -0.81992842636327
C         1.50765621891196    0.79677012684370   -1.68625377767037
C         1.08367414055182    2.10824515573162   -2.32698284287802
O         1.86472380522292    2.61478733143048   -3.33724930360994
C         3.22237526242211    2.88664625327693   -3.09360037698025
C         3.46777490292201    3.41362535623722   -1.69430596767454
C         3.29123460693898    2.40846970264502   -0.46599832748612
C         2.21500382562904    2.98058583867642    0.44219015501554
C         1.26019800780003    3.57376932810715    1.10288274740040
C         4.50934674425002    2.51808002055530    0.43655383874447
C         5.70017938841624    2.55168497960193    0.96648271771734
C         4.20080891289543    1.77717978580331   -3.52016767429137
N         5.10961361698674    2.41331958262898   -4.60120865968194
C         4.96041428524676    1.06247812533719   -2.42845231080486
N         4.12018465666266    0.28486961594609   -1.53032178921923
H         3.58322309894507   -1.91579742554682    0.07930141385127
H         1.85930914004442   -1.64957900881613   -0.26231962850863
H         2.53748429725467   -1.68470085735916    1.45661941362660
H         3.78505238770877    0.31145434244921    1.07610384602503
H         2.02916647096628    0.56521844766886    1.06123925076953
H         0.68065715230845    0.54778617264060   -1.02612943201175
H         1.67985385230573   -0.08309853270124   -2.37773350191095
H         1.03644252967076    2.84983828275339   -1.50756923227714
H         0.06816442667859    2.17925271593816   -2.76127504642720
H         3.40818974649312    3.67140856028829   -3.83186287148980
H         2.84163214132263    4.33171178713906   -1.49600489753382
H         4.57011706348203    3.74284409086442   -1.59393117948235
H         0.51184291995570    4.13277455399563    1.61696455953756
H         6.53302875397181    2.67758121468100    1.62377008886856
H         3.63199128386512    1.05604207691925   -4.11199220868991
H         6.03676022963520    2.70514503282508   -4.29136560236647
H         5.20592634401042    1.75256399580345   -5.37605827334083
H         5.51387956501135    1.84714503234971   -1.87880659036020
H         5.64897951764204    0.35036801334784   -2.90386448535513
H         3.81261694122143   -0.49635220572731   -2.14727203448297
