37
 energy: -49.774864373912 gnorm: 0.341158501610 xtb: 6.4.1 (79825abcba525fcdf90b791dcacef51065a7a4e7)
C         2.68979223512345   -1.71793852683673    0.02808661717472
C         3.20244701205060   -0.30807497863125    0.26790140444566
C         3.15924796633597    0.88268384844537   -0.77808898923101
C         1.46151804310998    0.90445444560446   -1.15929402548283
C         1.02245493033624    2.03233683905952   -2.07873199420138
O         1.93413778511005    2.31566520647149   -3.06656866309710
C         3.23990373814676    2.82045481878216   -2.93752496839567
C         3.81558625728793    3.12131468215235   -1.47649681249852
C         3.37875945388599    2.26146691821124   -0.20366995474461
C         2.19709301900915    3.00647533301192    0.39551507001808
C         1.51102744993992    3.96400535953482    0.95451940661550
C         4.55962556529686    2.55151933475363    0.70838095948017
C         5.28963736573169    3.09007568033302    1.64490437158321
C         4.12669380034261    1.98877193049614   -3.80745771395758
N         4.92167138128864    2.77504733649805   -4.87938638459368
C         4.84630726943797    0.99424928533468   -2.92841142217518
N         3.95119991923527    0.41452809184677   -1.93845918830197
H         1.63971475169354   -1.78301526670510   -0.24939877605699
H         2.76697608567243   -2.44856213592179    0.84332510563544
H         3.09458350685036   -2.17176416020563   -0.88706480688781
H         4.24402877166332   -0.44258738770292    0.57926479638637
H         2.76331055127391    0.15118915082979    1.16076603459807
H         1.06230221572936    0.86811335152897   -0.14885319831424
H         1.21284264070468   -0.03063818487123   -1.74727991691260
H         0.80214155082988    2.94066483358911   -1.48709686565182
H         0.06333502829593    1.78612592001072   -2.57308102812734
H         3.02637319395527    3.83685926072361   -3.27919312448025
H         3.67499407403796    4.21675460158080   -1.24303164418631
H         4.93239296386044    3.10844123235527   -1.77008727025257
H         0.71071624175672    4.60766616793305    1.24088450800173
H         5.79208763633221    3.13103454441566    2.58691325206947
H         3.58584434828692    1.26104726310278   -4.41716916081660
H         5.01120642621772    3.78881431135815   -4.80849455669304
H         5.88618989711298    2.43450774734449   -4.88106909501093
H         5.76040198163419    1.39699419518647   -2.45263439105336
H         5.09967194995030    0.11125178564540   -3.53120606431371
H         3.25776197445164    0.10061894592889   -2.64989288451074
