37
 energy: -49.857822665953 gnorm: 0.314534953563 xtb: 6.4.1 (79825abcba525fcdf90b791dcacef51065a7a4e7)
C         2.96321459554333   -1.47232296450212    0.30636931641039
C         2.86559331364825    0.03505781204335    0.46858693988639
C         3.06235555554680    0.89248873383629   -0.85049057130196
C         1.65184028697310    0.79327589754143   -1.86473000137024
C         1.10175616548836    2.12641052956550   -2.34475166898546
O         1.80628264839378    2.74945638495774   -3.34610983323618
C         3.15782037376606    3.00371968766088   -3.05424427878134
C         3.37783010246637    3.49677502830262   -1.62870800986009
C         3.26734692186213    2.41059545643275   -0.46326755702077
C         2.15351582714242    2.84691295664038    0.47449742701971
C         1.28655825021995    3.14380165629541    1.40200874248947
C         4.55575492809211    2.51049177279853    0.33700589573024
C         5.44056041673430    2.89051119139203    1.21606265397862
C         4.07278670424706    1.83495394326598   -3.52871305196108
N         4.90128895931726    2.37391287998935   -4.72133902906114
C         4.95645301842806    1.25222638723987   -2.45204984524751
N         4.28368537685287    0.37332223548149   -1.50748092297714
H         2.09815927575257   -1.86718708661129   -0.22245718222133
H         3.01465900570631   -2.00073160962637    1.26684824621779
H         3.87009057444186   -1.73272849367222   -0.25672990003198
H         3.72658721049565    0.31949945640738    1.08317279451961
H         1.93797921159439    0.26760030304907    1.00377633375645
H         0.86704350657058    0.29603136243685   -1.30034847870027
H         1.90693752808540    0.05380296257465   -2.68330820048915
H         0.96209997907271    2.87599876493540   -1.54335071855801
H         0.11933220954139    1.98042187064010   -2.83305716036398
H         3.44442985870074    3.88376205677988   -3.63630170163339
H         2.67642667232143    4.35230129299825   -1.40427805348362
H         4.46383700456100    3.88878435504094   -1.65185983024905
H         0.50209646838996    3.43460526682395    2.06295899049442
H         6.32226311242370    2.75230202406912    1.80344092056457
H         3.42613405301521    1.07920153127855   -3.98096078298733
H         5.80069697948337    2.77552299385855   -4.45574500692360
H         5.15711617518227    1.58936453459366   -5.32574149435777
H         5.46378106572922    2.00238979913205   -1.81643243142196
H         5.79183851383301    0.68073359437975   -2.87956205367461
H         4.01558290974098   -0.47410057095958   -2.05110643160502
