37
 energy: -49.852972316652 gnorm: 0.332521056359 xtb: 6.4.1 (79825abcba525fcdf90b791dcacef51065a7a4e7)
C         2.42970679422519   -1.19740537416342    0.45642812791079
C         2.88683178406777    0.24504906222638    0.59208659681904
C         2.90170331762082    0.97493190692675   -0.81536447393889
C         1.23895548294215    0.93545600273644   -1.32701808980100
C         0.97182298568206    1.88501291690701   -2.48341040425340
O         2.02885998338115    1.92353521770118   -3.36002359946349
C         3.18954262212113    2.70098641476747   -3.20230549524671
C         3.47022391522597    3.37556023287875   -1.87862883327268
C         3.34410756346114    2.44269251114527   -0.58863019668717
C         2.37552585992299    3.04732543789378    0.41469643631373
C         1.59382549221295    3.73064428279963    1.20340130007059
C         4.69680348089722    2.62717113956659    0.07964621481927
C         5.82514944210952    2.72844567980202    0.72510350544805
C         4.39725686558925    1.74552128611133   -3.54803117109481
N         5.56005969431098    2.72644561518392   -3.83945266231100
C         4.79317320418439    0.81629155881885   -2.42579073926604
N         3.70418259663032    0.13948920762372   -1.73779561533428
H         3.14262723227078   -1.67426638607666   -0.21308204470039
H         1.43034031941957   -1.30174801109960    0.01511048567692
H         2.53062190441125   -1.62424807193282    1.46386907416671
H         3.87971832378058    0.29413191981216    1.05219582791416
H         2.19959105625083    0.73403459897454    1.29177577543390
H         0.65588418531128    1.09555668057331   -0.42364648729297
H         1.10607253477301   -0.12678895463604   -1.69572239504847
H         0.65124374499919    2.89264844752416   -2.15855744634078
H         0.09485113088268    1.50696827890779   -3.04279791596166
H         3.15581266115931    3.49453399136919   -3.95367420979421
H         2.80382942470653    4.28132055877630   -1.77974821719447
H         4.56378955035898    3.74647214369876   -1.89115334991161
H         0.86954110524497    4.17091826228402    1.85021905506013
H         6.83923669373624    2.80537429777233    1.05255369680015
H         4.11825900747717    1.23515736660925   -4.47298426970737
H         6.41668724137752    2.18710814214129   -3.96622012926139
H         5.32068117980066    3.41837073780431   -4.55373801297676
H         5.48976167747468    1.30447850800818   -1.71827791930518
H         5.36882072238080    0.04683717852812   -2.95852849655029
H         3.15760753282236   -0.32051211437352   -2.49620679851578
