37
 energy: -49.851383634411 gnorm: 0.326068607003 xtb: 6.4.1 (79825abcba525fcdf90b791dcacef51065a7a4e7)
C         2.45265906331785   -1.26084240672773    0.34746491013182
C         2.73944430289691    0.20530306266162    0.62353187018640
C         2.93841892551259    0.95523747893085   -0.75917421454616
C         1.46719652480055    0.78350245708887   -1.67245941703282
C         1.14186877073705    2.13237950105081   -2.29290591902880
O         1.95225115815632    2.50358204078020   -3.33825319948590
C         3.30504513518724    2.80275076592979   -3.09964037153762
C         3.53229685730308    3.36772634970238   -1.72802639879504
C         3.28092107474226    2.40369048476379   -0.47995225725836
C         2.28213135557681    3.06806490506990    0.45354737687385
C         1.54954995017328    3.94120836239410    1.08677755989482
C         4.53646083545093    2.42798536491895    0.37645981682601
C         5.69165607427010    2.74848981320939    0.88913621940267
C         4.23160860972307    1.65003820262719   -3.52870051726031
N         5.29814114113715    2.14903608179792   -4.53505975697700
C         4.92980148785816    0.99149599777020   -2.36315768694533
N         4.02832787701875    0.26253959669318   -1.48380158695990
H         3.28483463667650   -1.67872248187696   -0.21534580828447
H         1.52269127918100   -1.49691049385942   -0.18527684425174
H         2.36330918236449   -1.76305872141158    1.32066128307325
H         3.61430645120943    0.36254167062737    1.26370805979323
H         1.95006761400097    0.69239261205405    1.20714118609963
H         0.58366013060952    0.44996306991773   -1.13412909591284
H         1.75235110616234    0.07215950214956   -2.50591196949179
H         1.08406811444666    2.89898107493163   -1.49753747146595
H         0.10262966090945    2.09635023348604   -2.67184619811780
H         3.52160182639118    3.59821587301563   -3.81779695244156
H         2.80754263907866    4.21447157199577   -1.54910011021811
H         4.58466727713918    3.81515501672256   -1.56695996774193
H         0.88664470359612    4.44329626513184    1.75406058749946
H         6.58879022367848    2.97098351621664    1.42501070324413
H         3.56281035330816    0.96366051092718   -4.05352803779009
H         5.89395993581252    1.35616543494843   -4.77406133890727
H         4.91682868913413    2.49337889735630   -5.41953409239165
H         5.60949858841692    1.76531956428202   -1.95899765899401
H         5.68648995746450    0.30902646255680   -2.77412912145063
H         3.67355593461581   -0.60457410899690   -1.93963459322004
