37
 energy: -49.851332564294 gnorm: 0.316479291935 xtb: 6.4.1 (79825abcba525fcdf90b791dcacef51065a7a4e7)
C         2.58852721315683   -1.42415611774210    0.21984598356102
C         2.87476391886348    0.04507737897954    0.47958192166571
C         3.05638769320431    0.85954385752867   -0.86857452518809
C         1.54316306783465    0.72560738394619   -1.71727375589533
C         0.94712657748528    1.91282706992565   -2.45586106112753
O         1.78073901870177    2.47145196508518   -3.39409898398488
C         3.09853725441703    2.84899723638260   -3.08207826370123
C         3.36217711767011    3.42978832910396   -1.68808053586656
C         3.27425095018747    2.36773564240161   -0.49872899032315
C         2.28893743405777    2.94691516399923    0.50332106761490
C         1.71678385946391    3.36257808355893    1.59872057902492
C         4.51345863870659    2.49864369890709    0.37169586916585
C         5.52068450473357    3.14334507832875    0.89120765781147
C         4.21361192297545    1.83856832430310   -3.48014662986892
N         5.17822513790219    2.59953148551195   -4.42338883426990
C         5.00907732041176    1.14694869871309   -2.39915712261818
N         4.15857380723881    0.24193065446049   -1.64094516698534
H         1.74517751293559   -1.52189528011705   -0.46067160330039
H         2.40907044276168   -1.96164741600442    1.15967595217307
H         3.46805299515070   -1.88109552290700   -0.25444990191537
H         3.85677778848814    0.14570424038990    0.95440431641974
H         2.06699359309158    0.48460025092617    1.07565101609020
H         0.76056399244114    0.31166783978668   -1.08649855206108
H         1.87810329107916   -0.02569848416149   -2.49529665470636
H         0.65856998270620    2.73404892030509   -1.77324871144724
H         0.12399116281164    1.48582289168821   -3.06003594569634
H         3.25387680054309    3.66336096755058   -3.79488381258963
H         2.54268469777361    4.19262623353354   -1.54395810307774
H         4.36570705449147    3.99729607090672   -1.62114069255861
H         1.12005941247818    3.83431765946900    2.34583773166845
H         6.29360912202404    3.42702012675745    1.57211193677660
H         3.80606046425085    1.06623297703713   -4.13684236579145
H         5.75693508621967    3.26181274111478   -3.90643236698172
H         5.80996564983226    1.91791584582399   -4.85067100801315
H         5.43062149856801    1.89350724019476   -1.69980939888658
H         5.77797811207739    0.53369969035410   -2.88901103219433
H         3.73026721030611   -0.43209628476680   -2.31010447790821
