37
 energy: -49.852479538388 gnorm: 0.327868417625 xtb: 6.4.1 (79825abcba525fcdf90b791dcacef51065a7a4e7)
C         2.43404471300419   -1.25453569282900    0.60028194880653
C         2.92059778928299    0.18461881886229    0.61218459282111
C         3.07831086548237    0.94659753684144   -0.76925800999565
C         1.53691106106543    0.88966967397785   -1.57481619694246
C         1.07607330090206    2.07651424316734   -2.40505099295806
O         1.83797036282824    2.43199018282786   -3.49151847956666
C         3.17402086468928    2.79881891883890   -3.25299114993886
C         3.45961978139482    3.38670146870565   -1.81247880614739
C         3.40085510593492    2.42672395892272   -0.53763218527202
C         2.32589704819121    2.97579750976822    0.38615308175974
C         1.48710342002239    3.51570232241931    1.22577417199151
C         4.66536966666604    2.49957697921043    0.30266976311569
C         5.51291063633230    2.71401324661170    1.26999993463843
C         4.19300680784874    1.75082031563533   -3.62672853194195
N         5.32899392098057    2.40000378110918   -4.45579038146286
C         4.91229450937723    1.03364876564776   -2.50962003661310
N         4.11151189221924    0.25700530524309   -1.57534417165231
H         3.13762481997285   -1.87672520213764    0.05096319393600
H         1.43968291776009   -1.30430073929292    0.13860017693516
H         2.29542451838566   -1.60692412058689    1.63174820898923
H         3.90056946906156    0.19849168318247    1.10146606867389
H         2.28131959446895    0.84219971618968    1.21208656218749
H         0.81899001358184    0.74267982087917   -0.77190401619556
H         1.59080773935635   -0.01495179915653   -2.25357994850607
H         0.86774863224053    2.93822331658988   -1.74347094373048
H         0.18410895754308    1.67458343722319   -2.92250921161677
H         3.29509667118990    3.73155322137066   -3.81044767896550
H         2.61879262808025    4.11457753516176   -1.61891513422051
H         4.48740624185479    3.91120569451360   -1.85904717564017
H         0.69440948365790    3.98877938032113    1.75928768525552
H         6.40608849898540    2.86475512032405    1.83659044547244
H         3.66881566010053    1.09755702849523   -4.32838378067288
H         6.05906598589765    1.70138535495871   -4.59612116770306
H         5.05863909730492    2.65718346291129   -5.40817312557271
H         5.60308995561660    1.73689424882408   -2.00724186163576
H         5.66271142829040    0.36885610166567   -2.95924742487875
H         3.68356956379795   -0.56248140124197   -2.05580222474999
