37
 energy: -49.853145101751 gnorm: 0.318970005657 xtb: 6.4.1 (79825abcba525fcdf90b791dcacef51065a7a4e7)
C         2.28103804838097   -1.25434190847834    0.50065736843742
C         2.82584965802862    0.16234756979741    0.56556121592408
C         3.05198179716543    0.95722874172117   -0.78754514493943
C         1.48219613574646    0.90703017279265   -1.53676554747872
C         1.05650411146883    2.05221304367806   -2.44098000287414
O         1.92066345281437    2.43030480670902   -3.43974780737370
C         3.26369585461042    2.73349936521867   -3.15544765022034
C         3.50925571597882    3.33485879225558   -1.78222052464578
C         3.37256356663508    2.42506076642818   -0.47691336973741
C         2.30306585695410    2.88832131873057    0.49877106922572
C         1.59680997741074    3.67964282514680    1.25709051054778
C         4.60998469330493    2.48619846895382    0.40369045490502
C         5.71580313565089    2.95024373874352    0.91541673743877
C         4.24205576513284    1.69710849200341   -3.63145574568716
N         5.38713581819559    2.45612242356939   -4.34695484917182
C         4.91495732460560    0.96983291916891   -2.49219504142351
N         4.03631210780495    0.21707667533536   -1.60978930905446
H         3.02440799003353   -1.92546604966559    0.07534646596512
H         1.35344850368392   -1.37186810945352   -0.07392702636378
H         1.99138710757289   -1.58358811294804    1.50813693524702
H         3.82907518494343    0.08311152357824    0.99821986102399
H         2.15405556865660    0.78345633400566    1.16879270062999
H         0.73609609028938    0.84038977563919   -0.74899756338683
H         1.50519802608063   -0.02510745696785   -2.17907033810336
H         0.67397488051172    2.88201622335050   -1.81749950873186
H         0.19968348276101    1.67378866379839   -3.03052658239633
H         3.50967808217175    3.59328114015696   -3.78447742294558
H         2.78862382597702    4.16512277457570   -1.52607181313694
H         4.56168609844094    3.80554635922450   -1.84901725062786
H         0.79917571848916    4.02551090528450    1.87430775050330
H         6.49288627301599    3.11783934905585    1.62925712849298
H         3.77040907717690    1.02597552811762   -4.35324471501877
H         6.23185333281909    1.89737309860355   -4.46949940115576
H         5.10032850421860    2.65619164424396   -5.30819357200417
H         5.52755382896693    1.67027618257979   -1.89366254745963
H         5.57821788567966    0.23008431235165   -2.96134006516428
H         3.50882450293700   -0.52419150944814   -2.11754057117956
