37
 energy: -49.853157388610 gnorm: 0.328438257944 xtb: 6.4.1 (79825abcba525fcdf90b791dcacef51065a7a4e7)
C         2.58570366666759   -1.27963422539282    0.43377926470923
C         2.96215696649682    0.18419726499665    0.58714666085940
C         2.88456799261957    0.93214696420280   -0.80871144237830
C         1.21617492406728    1.00712555143630   -1.29750680980997
C         1.11669479318916    2.03980220361764   -2.40833709592864
O         2.03580003525356    1.94459659974410   -3.42492124050665
C         3.23298451714339    2.66844513305184   -3.28606098997098
C         3.43508532158801    3.31894550113705   -1.89937401059039
C         3.30138583689776    2.38597052876042   -0.61021685494053
C         2.40323433807575    3.06968602773680    0.40774823999309
C         1.57011549822331    3.78919798822674    1.10649784721002
C         4.62708264271910    2.42067625750883    0.13257216759341
C         5.43503774251797    2.81143206178376    1.07838123646621
C         4.34624277561164    1.73801282899040   -3.63264477402600
N         5.52963505806413    2.62430275626014   -4.09451306042365
C         4.83207622571276    0.90975191525935   -2.46748772991030
N         3.81836975764944    0.20425186385873   -1.69809307805076
H         3.32488170032849   -1.81291281030396   -0.16046448348717
H         1.62823575594893   -1.41691405562823   -0.08467174193447
H         2.61658645481466   -1.80917147769689    1.39604344883747
H         3.95893699292338    0.35560682243422    1.00783853695552
H         2.21272008234111    0.65822052446754    1.23105498184962
H         0.71103851773256    1.26649919848441   -0.37055096434565
H         0.96548096081656   -0.05069324032193   -1.61395116906028
H         1.10536519260765    3.03682122918604   -1.92932294263063
H         0.13521914781503    1.96867939755128   -2.91485350687940
H         3.17271657464922    3.52843496150766   -3.95851595637526
H         2.80802931223575    4.22977113294178   -1.67253001336955
H         4.53400861880934    3.67132272172951   -1.94199083897833
H         1.05022636171448    4.28156591556547    1.89649241986657
H         6.37572999481087    2.93973592978618    1.56843310626612
H         4.00827208544080    1.01710349894359   -4.38091940287853
H         6.25687535190396    2.03460896678197   -4.49966543244209
H         5.13037828482275    3.20731411606583   -4.83407901018585
H         5.25749971373436    1.53176677600125   -1.65739590939622
H         5.54532204055693    0.13992212496989   -2.79288307110869
H         3.17508817917381   -0.37873581944640   -2.27415489001282
