37
 energy: -49.857916774933 gnorm: 0.321318320002 xtb: 6.4.1 (79825abcba525fcdf90b791dcacef51065a7a4e7)
C         2.48581693957172   -1.32793622986799    0.45226729724172
C         2.77347731045974    0.15905578757413    0.57121068128541
C         3.05282438837549    0.92967276041540   -0.78598618623568
C         1.56945060605776    0.80231382379157   -1.68679696240051
C         1.11764172258463    2.11834918953262   -2.29850027130001
O         1.85348816462926    2.56636290428013   -3.36858232481989
C         3.22956100564130    2.77053314365274   -3.16553651309099
C         3.50679103216100    3.32777807758818   -1.75211725181405
C         3.36599215005129    2.37122203093426   -0.48112541738135
C         2.32945864163043    2.97489933736292    0.45245260765764
C         1.47450127291607    3.59425122752281    1.21762360050042
C         4.62930494412130    2.50497322885952    0.35347834958729
C         5.50407651288180    3.05397992219039    1.14934435570410
C         4.23287224692707    1.70771205672152   -3.60581357468067
N         5.28772388508583    2.36242919131816   -4.53203327783647
C         4.95298251529087    1.00476485028643   -2.48022588534159
N         4.12874575816573    0.25311386817573   -1.54590590498345
H         3.38465478206046   -1.93427777309330    0.36096388687893
H         1.71292233720458   -1.57401728081200   -0.28696206376355
H         2.04711000397768   -1.59923776981703    1.42244640821217
H         3.67995122007465    0.29755007889973    1.17042491227183
H         1.98614233805314    0.69475204330547    1.11352496523370
H         0.76509017425038    0.49244435289737   -1.02447542108263
H         1.79183214957856    0.06258774907603   -2.51463563963927
H         1.01096115507020    2.85278485934266   -1.47822387899264
H         0.10482631685312    2.00873538773814   -2.73105262538824
H         3.45525746850640    3.63631587111371   -3.79394067227231
H         2.73850033690863    4.13255129716300   -1.56151231128996
H         4.56477138576494    3.78854721332733   -1.70753374908270
H         0.67861712836573    3.99370547073739    1.80397422072325
H         6.43532449220179    3.10735438151781    1.67034627814152
H         3.65748136102867    0.97160947851317   -4.17231837833163
H         5.85927163732678    1.61079185019344   -4.91821992860374
H         4.76686522598026    2.64279409011032   -5.36651982144060
H         5.59979785485539    1.75952323045701   -1.99431839114242
H         5.64300621373256    0.29078493359758   -2.95069331323974
H         3.75034099452081   -0.56485722021963   -2.06865457572279
