37
 energy: -49.859071909752 gnorm: 0.320107883276 xtb: 6.4.1 (79825abcba525fcdf90b791dcacef51065a7a4e7)
C         2.78357103669154   -1.44003099713165    0.28886840987001
C         2.82890167412024    0.06780052399748    0.46895315307928
C         3.06274769545395    0.93306255915072   -0.83891010232602
C         1.68066682923064    0.65750450881979   -1.85969331702623
C         1.08173399112428    1.99196004638199   -2.27293557398084
O         1.76073786303604    2.58550607042920   -3.30923607838286
C         3.11436141178925    2.90934762184863   -3.11094465164403
C         3.37117605011482    3.45630704530993   -1.66736373946583
C         3.28113141464733    2.40672712637557   -0.46714793915800
C         2.14644318808326    2.81721764253132    0.45717667710376
C         1.43038794974339    3.28190193746157    1.44275716723445
C         4.55556916011651    2.57943324188851    0.34303290542441
C         5.61058289526403    3.01649081972688    0.97228878080842
C         4.06081329147906    1.78191194702208   -3.56441023743760
N         4.95718405400753    2.40188661799705   -4.66504655648871
C         4.96878509150832    1.29859285603118   -2.45913602409401
N         4.32183469716001    0.46188234402154   -1.45980126397861
H         1.79206864806802   -1.70184944772489   -0.07482096193473
H         2.95355698619355   -2.00648071319273    1.21332581522964
H         3.59460902519556   -1.77587158095306   -0.37199790924596
H         3.67218900621466    0.35596543865779    1.10594669280923
H         1.91276392838262    0.39293756120149    0.97486733318965
H         0.97208785908164    0.10602486366612   -1.24693670840838
H         2.06456932162402    0.09408288752928   -2.76365130557199
H         0.92309410922441    2.64871888418300   -1.39707538353662
H         0.08345051111663    1.76989945811311   -2.69605607614584
H         3.27220190451532    3.74524554425278   -3.79780086219573
H         2.56746319844504    4.22235687622375   -1.46371189898574
H         4.38887008846160    4.00051045312449   -1.62541376684486
H         0.65539620427507    3.47861677673427    2.14808923870874
H         6.41934273509717    3.06493658487056    1.66876213081462
H         3.52298263493502    1.01625887622078   -4.12864682774018
H         5.73815699603962    2.90269196907293   -4.24073426696176
H         5.35840714713970    1.63718404322131   -5.21323996429752
H         5.33052823237151    2.20845725116256   -1.94394181665109
H         5.86956705629384    0.74773936490812   -2.76309639947487
H         4.13801898497707   -0.48210603389081   -1.86058894554026
