37
 energy: -49.812210076709 gnorm: 0.337348932750 xtb: 6.4.1 (79825abcba525fcdf90b791dcacef51065a7a4e7)
C         2.87537495614988   -1.42929240599921    0.06141759903602
C         3.08050724886093    0.03669063557627    0.40325929025782
C         3.17959297531492    1.00833195261734   -0.84572582409232
C         1.56556768546432    1.07467684592332   -1.49271798026764
C         1.04623039363525    2.31553329570929   -2.20040812260004
O         1.80257611499750    2.46589847638977   -3.33733087212011
C         3.15438752620698    2.81007481097535   -3.16229341521148
C         3.27710457230513    3.42193646718038   -1.77434639578836
C         3.30446686881698    2.51034883430740   -0.46342943474074
C         2.26892477557171    2.83071392366415    0.60212896541074
C         1.18649502844040    3.29196252716958    1.16393949841286
C         4.53922476626835    2.64656280063128    0.41248765456550
C         5.21186298050009    2.63972006005139    1.52942422016402
C         4.16923069587559    1.73174961465595   -3.68674714024464
N         5.07198879159269    2.23935229968002   -4.83853565302099
C         5.01930103756907    1.14080233211731   -2.58774625602986
N         4.16558890351514    0.33873742646416   -1.72451584892909
H         1.88823124159459   -1.80725844953104   -0.19662271493361
H         3.10351670153059   -2.01008673418388    0.96419735653587
H         3.53606422363626   -1.70827304074961   -0.77103378425923
H         4.03850281148533    0.10852247145947    0.92958428635921
H         2.29762150685123    0.33009406881089    1.11176190852970
H         0.95549294180946    0.85493386652272   -0.62024652083765
H         1.73009950121741    0.26469562668299   -2.26655568815643
H         0.99470896979128    3.25718579059826   -1.62225072351833
H        -0.00518316529198    2.02891739385469   -2.39352110398718
H         3.28854042923865    3.69621716977768   -3.78852430740831
H         2.47854371667101    4.17854023398655   -1.52114278224854
H         4.22902595646764    4.07528668019272   -1.74990280489353
H         0.30034589504117    3.56059310502863    1.69250324745980
H         5.78733419223295    2.76074098259295    2.42144521799666
H         3.61290629287058    0.92504869071524   -4.17005464869722
H         5.54730885910796    3.02764049897468   -4.39871955148693
H         5.74146102683499    1.48304786933069   -5.00001799128786
H         5.60747418150969    1.94423057210693   -2.10536486665980
H         5.65185290602809    0.33595849729023   -2.98692561651045
H         4.71930789423806   -0.21743095875648   -1.03923849925611
