37
 energy: -49.854421092333 gnorm: 0.326466862952 xtb: 6.4.1 (79825abcba525fcdf90b791dcacef51065a7a4e7)
C         2.57813177663303   -1.37040389992456    0.45411236773330
C         2.77967135258520    0.13225637102653    0.55124725834267
C         2.88503243973908    0.95072671705487   -0.80258950434537
C         1.25238683279609    0.89620418430962   -1.40223418818368
C         0.99893391872822    1.89099429848831   -2.52313362091764
O         2.04753727512314    1.86530236557566   -3.41028231290722
C         3.15737320622694    2.69615225466493   -3.17695374647251
C         3.28005173057507    3.37163271325668   -1.80620440497779
C         3.31235396062466    2.41152141032155   -0.53051365858179
C         2.35628364143370    3.05577431805291    0.46007382027537
C         1.63666727261799    3.77326673143536    1.27701471957875
C         4.66439745278730    2.66157487043935    0.11745519578515
C         5.88320288058926    2.63015751207636    0.57958348985678
C         4.40631094150119    1.89628250987468   -3.53019506708378
N         5.56093727130109    2.86690986532760   -3.88228883123567
C         4.84201063462568    0.96128715721338   -2.42765677389300
N         3.79526073224729    0.23448710695200   -1.72524977988152
H         3.31039368321130   -1.76058034078586   -0.24977021626373
H         1.57928258312622   -1.64015280576200    0.08816453728378
H         2.67890117885767   -1.91136568093022    1.40517581848059
H         3.68539565140867    0.36407656824422    1.12208541653752
H         1.91083134729933    0.50335260316680    1.10656361095386
H         0.60019581660774    1.02458690462674   -0.54208921616711
H         1.16583759360426   -0.17207326518823   -1.76727885963106
H         0.66567557791385    2.86876307083956   -2.12748609791897
H         0.13318015031235    1.61644951754893   -3.15559496076544
H         3.10511452851188    3.56315552952163   -3.84102058330953
H         2.40242716985505    4.03454554105442   -1.55207357171630
H         4.28609823507413    3.93796845510234   -1.77877145207483
H         1.02508866190706    4.28367072273803    1.98571889926144
H         6.85735167243071    2.71346696279571    1.01040625342369
H         4.16634791993190    1.37760435706250   -4.46145233113870
H         6.40536821563818    2.29579027331043   -3.92133299540577
H         5.41978670320762    3.28676908377668   -4.80427623055563
H         5.36852539358064    1.51979917930759   -1.63079861923310
H         5.58506788243351    0.24833380082660   -2.81080565443664
H         3.29308369293648   -0.27836545386300   -2.48045406444563
