37
 energy: -49.852120250393 gnorm: 0.326858807233 xtb: 6.4.1 (79825abcba525fcdf90b791dcacef51065a7a4e7)
C         2.83595291101048   -1.40113999712138    0.35241540472627
C         2.92284748195685    0.10913939231314    0.49222519329424
C         2.95966432790159    0.93899040156786   -0.85827858988372
C         1.33969486906322    0.75083129504245   -1.46521617682347
C         0.94110172502080    1.95579034486271   -2.30155252247677
O         1.81823503748588    2.15491484403866   -3.33993995603998
C         3.07057239578839    2.77480749362041   -3.18542848044660
C         3.29590651394215    3.35839632127874   -1.79030645368466
C         3.25924089097787    2.40660793385635   -0.50851141456979
C         2.22056969882233    3.02092378469276    0.41570394252940
C         1.41161878663167    3.50580909872565    1.31599287416059
C         4.61807279652244    2.57602477196098    0.15125048478012
C         5.79898087140214    2.75088962340973    0.67557354608305
C         4.28682744483903    1.87245632855796   -3.62416029852734
N         5.37304852655002    2.76490050167316   -4.27448068334789
C         4.87909516043292    1.10048200014181   -2.46964056746276
N         4.00420764218149    0.26398274273771   -1.66208866247236
H         3.79099542824431   -1.73998910570134   -0.04378015151744
H         1.92950582918654   -1.67083563718139   -0.20436098466394
H         2.72076203491950   -1.85526889443129    1.34630363535917
H         3.88255333333716    0.30806654245636    0.98143473935513
H         2.11560435014329    0.46053574373114    1.14479760317951
H         0.73911816467914    0.55483922949183   -0.58058102616370
H         1.33884313582854   -0.15600371913694   -2.14316501242963
H         0.85339311068894    2.81580206401739   -1.61139536770653
H        -0.04380305484616    1.84901021969166   -2.79498169688391
H         3.04459720825533    3.62261904838012   -3.87532069597572
H         2.55735710145794    4.18377113410767   -1.57221942898338
H         4.28791875074661    3.94933309887747   -1.77231324787706
H         0.73091009436965    3.90977002461385    2.03031318864505
H         6.66840134003090    2.97500816165952    1.25470524821522
H         3.92023734287407    1.20294045986939   -4.40595922952625
H         5.87827438682674    3.22408791193921   -3.51641775241170
H         6.00185317843567    2.33380072464931   -4.95640714764969
H         5.25600769392665    1.79991181639713   -1.69965922799931
H         5.71840715818776    0.44683665853816   -2.74449100755131
H         3.67495664223785   -0.53003542948023   -2.25086872379904
