37
 energy: -49.853168652357 gnorm: 0.320570847206 xtb: 6.4.1 (79825abcba525fcdf90b791dcacef51065a7a4e7)
C         2.64419815343660   -1.39835840545232    0.27465775906010
C         2.91241233741767    0.07516788808394    0.52926076618092
C         3.09713281436728    0.87740454244011   -0.82579028144639
C         1.59324944482432    0.70412373055346   -1.68392005141672
C         0.97967097828095    1.92721548300378   -2.34560677450432
O         1.80917987643107    2.48645085976760   -3.28711230147464
C         3.12181146153143    2.91309742392454   -3.01979117786993
C         3.32622679017749    3.41433942865054   -1.61145044619451
C         3.38689143691463    2.34374657791356   -0.42806767632853
C         2.33889946791361    2.80502845096637    0.57159610749382
C         1.39114317769648    3.35643711932312    1.27710445494447
C         4.70811219855927    2.63948722393089    0.26281956200433
C         5.64469322015589    3.15764107791926    1.00737905919720
C         4.13307614721829    1.86197452656838   -3.54194243153819
N         5.04480216376114    2.47850789347144   -4.63184688680700
C         5.00892999010148    1.16012972478735   -2.53202404864565
N         4.22567445113738    0.34035026877867   -1.62000888401840
H         3.55202006800154   -1.87974198525761   -0.08314814836624
H         1.82717250151604   -1.58240882204011   -0.43455062104654
H         2.30675495382091   -1.88486132636898    1.20027258350546
H         3.79386323949091    0.24428412727865    1.15725544528815
H         2.07464424777790    0.61044943240849    0.99033550634258
H         0.85057813060311    0.22166141146871   -1.05355979969373
H         1.84799395458952    0.00319978730000   -2.53584490285883
H         0.64932010936619    2.62120406218920   -1.55007047008402
H         0.10999918581840    1.64229788661643   -2.96802520873310
H         3.25574940198296    3.81621530754264   -3.62133014434160
H         2.40541144968411    4.02987639819749   -1.39356489367790
H         4.22375572921272    4.12883579509323   -1.47895495783907
H         0.71563745816461    3.66004889195030    2.04412085803285
H         6.52147913233492    3.51536749209454    1.50214454481609
H         3.57666792476656    1.10489812967561   -4.09970097161223
H         5.84199210879608    2.91487690121427   -4.16834291108605
H         5.34255047880587    1.64636405733819   -5.14677269463657
H         5.60325185689542    1.85386768603494   -1.90780810155746
H         5.77886848661688    0.54776880088703   -3.02135873675467
H         3.85820639265302   -0.47325214087519   -2.15717867498396
