37
 energy: -49.745853319743 gnorm: 0.331989698270 xtb: 6.4.1 (79825abcba525fcdf90b791dcacef51065a7a4e7)
C         3.17434611459794   -1.40189977341579    0.23122660992162
C         3.17952644262370    0.10405575357214    0.43150739103529
C         2.88100368132186    0.95760413431369   -0.87087809988347
C         1.19235871411456    1.01613374140195   -1.28696774130352
C         0.99560106803335    2.19884522805772   -2.22117395849340
O         1.80822086971203    2.16981004947482   -3.32845345887818
C         3.10039857809993    2.70819803391564   -3.19843538301408
C         3.42430941074593    3.36061974923081   -1.80500757704995
C         3.27815218168042    2.46194430661309   -0.49303783620123
C         2.44698525360183    3.21113734529482    0.53568330432565
C         1.63018303010606    3.63795370824942    1.45801598731527
C         4.56664608535954    2.57285734096362    0.30564474042957
C         5.41261735174190    1.92820761318874    1.05983020499832
C         4.24864115913633    1.95335655774357   -3.71735320290705
N         5.46223846494966    2.89289903156698   -3.92637703369101
C         4.45740903586302    0.82412859130966   -2.73709742409393
N         3.27665266984985    0.24983069503895   -2.10996459510788
H         2.21534633551304   -1.87451456033135    0.43334175870542
H         3.93593881693828   -1.77332751867570    0.92865042920673
H         3.61967550231863   -1.77928808940907   -0.69967381613892
H         4.18534108571079    0.41828691041844    0.73072135367040
H         2.67274318766583    0.41411675799854    1.35237900256641
H         0.52692563963809    0.96219423984346   -0.42907848841665
H         0.91885764719476    0.07293373578734   -1.85047107520044
H         1.36395804033821    3.15769123496402   -1.81061661538948
H        -0.02313930038522    2.35421420758842   -2.62483261649013
H         3.09696157094258    3.49586925814479   -3.95670488739093
H         2.86927874208917    4.33751170380442   -1.69599458499639
H         4.57479527440855    3.45988812986338   -1.79290874097782
H         1.54813429671273    3.84751387887835    2.50020349950564
H         6.42644084638185    1.92205054785302    1.39693355845368
H         4.03871873546630    1.90876461238228   -4.78870445416261
H         6.12505232342135    3.02455104268042   -3.16210535970344
H         5.84211980002602    2.77868663770581   -4.86919817837192
H         5.27901540044554    1.11942087435339   -2.05746381895548
H         5.02655697290225    0.13238799817756   -3.37334046207685
H         2.65408087261533   -0.19188269490014   -2.81906732175903
