37
 energy: -49.855187064903 gnorm: 0.321660067418 xtb: 6.4.1 (79825abcba525fcdf90b791dcacef51065a7a4e7)
C         2.72136026159809   -1.33083391382236    0.32345529541469
C         3.03462769122877    0.13397882956425    0.57688856404840
C         2.88347358574216    0.93287122009126   -0.78428447063499
C         1.21593788692030    1.06082258273819   -1.26494159651493
C         1.05083724084282    2.10157923371197   -2.36030850257548
O         1.99558319479545    1.99493020019694   -3.35194499951446
C         3.19263470139544    2.69536161139770   -3.12182963550303
C         3.48573025789589    3.33705132108801   -1.79855900520891
C         3.33271036033139    2.36377201249159   -0.54175499704007
C         2.30020892431752    2.97248817162557    0.39301837483562
C         1.45783265368442    3.83878133016153    0.88288968870262
C         4.59464168696597    2.41477662141290    0.30402264410640
C         5.64145628821984    2.92431454143381    0.89103761789374
C         4.34454667033803    1.72617470733593   -3.60494162930967
N         5.51772739390562    2.64354626318293   -4.03076537412312
C         4.77449674168749    0.81941211086006   -2.47686106943787
N         3.67294247324874    0.17261617582086   -1.78005947057744
H         3.39221272119520   -1.79198617545663   -0.39848058528344
H         1.70000395210245   -1.46101131983037   -0.05636983557273
H         2.76185271837096   -1.86917617918258    1.28046301454819
H         4.10385669934364    0.22439027489951    0.79713481443838
H         2.44043099101452    0.62194736732039    1.35777818954339
H         0.59987739519625    1.28904212306305   -0.39887582011144
H         0.84915017695178    0.07699612812829   -1.68863650425100
H         0.97442939021757    3.11191838666473   -1.91645436826041
H         0.08620416386721    1.96426133029479   -2.88522620155867
H         3.19446361416935    3.52727055722990   -3.83129039741999
H         2.81765034039242    4.22250238119514   -1.58902045196282
H         4.59464074085742    3.65614198021097   -1.75254815954647
H         0.66583056443139    4.14331185860470    1.52848717363404
H         6.50838134427260    3.03394854695244    1.50580254456205
H         4.05744188099750    1.15489265620287   -4.49097606864674
H         6.43379921443630    2.22942547711968   -3.85732359988911
H         5.37872365403551    2.99411587798895   -4.98157814020648
H         5.45990461570949    1.31370650165185   -1.76270038013113
H         5.43775400578028    0.03530153761679   -2.86737360056285
H         2.98172541561489   -0.22035607515250   -2.45335348393891
