37
 energy: -49.836847696220 gnorm: 0.318662830029 xtb: 6.4.1 (79825abcba525fcdf90b791dcacef51065a7a4e7)
C         3.05915880255729   -1.29376205049157    0.46993870382073
C         2.72950658152098    0.18883682544999    0.50559348687775
C         2.88930635189805    0.96757985608805   -0.86622719065464
C         1.37510986943036    0.79900550016969   -1.70698270203815
C         0.95348174478291    1.94325787991180   -2.61427400304566
O         1.90981303820145    2.21454009001280   -3.56248194212341
C         3.08398944306042    2.86268437928071   -3.14092731625177
C         3.30510043059447    3.46340740380811   -1.67401068767420
C         3.24287294617757    2.41308861178491   -0.47267718786182
C         2.14168768280374    2.88474660064048    0.46291116974202
C         1.59030810579670    3.44000121249302    1.50584376621774
C         4.51701807182436    2.45388849550407    0.35515223342735
C         5.77260318436915    2.48013155752083    0.70565700915828
C         4.26687219552079    1.94323383587301   -3.45351406881206
N         5.23644320492606    2.75977591864902   -4.34370535617206
C         4.95723596298072    1.21050869320296   -2.32827944714623
N         3.99309035818827    0.36127810104952   -1.64524949881171
H         2.56337331519215   -1.74366578384682   -0.38777874852589
H         2.62926965727220   -1.84258240706716    1.31750789692055
H         4.13669013801554   -1.50186985578804    0.41577994933871
H         3.28765480147889    0.72061966528658    1.28380354069773
H         1.71884576081599    0.27829419763722    0.91975976229027
H         0.66594829599221    0.59427753822110   -0.90894702515115
H         1.48667137560184   -0.15557738329543   -2.30555654114029
H         0.57343128968146    2.83731145414479   -2.08525631505377
H         0.10966979997504    1.57046762373282   -3.22576447498203
H         3.18943327162810    3.73953565796429   -3.78546113683304
H         2.55298805442283    4.30152893946468   -1.59565240951942
H         4.36086736853127    3.93131859920071   -1.66821503205721
H         1.01086442324742    3.76287185467550    2.34059032617551
H         6.61458259477877    2.09993732607713    1.24234838115099
H         3.78242897737553    1.19700123670111   -4.08778612879255
H         6.02036017939518    3.06382688045703   -3.76595727556507
H         5.54574684041315    2.23779385431233   -5.16719305873120
H         5.41353820853473    1.93881854386962   -1.63150874534389
H         5.67923991366541    0.52901954531357   -2.79894117599600
H         3.74283238320756   -0.54586998002995   -2.09244782638133
