37
 energy: -49.849200965980 gnorm: 0.326590087769 xtb: 6.4.1 (79825abcba525fcdf90b791dcacef51065a7a4e7)
C         2.75736081371606   -1.54398711205665    0.43163420587764
C         3.00057219776867   -0.04440191670244    0.44319889213448
C         3.01572981946988    0.86251807920252   -0.85723757821409
C         1.39197288854790    0.76120347569778   -1.47467333322205
C         1.02439849281354    2.00889449197315   -2.26106857775199
O         1.88417042993289    2.27822656727055   -3.29813864551616
C         3.13217543195561    2.90187333948308   -3.12482456504976
C         3.46024498675190    3.35408141781414   -1.72060946733468
C         3.25522358049728    2.33173767913752   -0.51105436162052
C         2.17143970632365    2.98514562134722    0.33088768615549
C         1.24812667287425    3.47449600794142    1.11067279476230
C         4.51606396335902    2.49530246333695    0.32197633382672
C         5.51905650937473    2.98386230713481    0.99677372225905
C         4.29122127192961    1.91469916504095   -3.62495796366657
N         5.32460426363483    2.78120330834018   -4.38688946023041
C         4.93073999168876    1.05276960023270   -2.56300954101094
N         3.97284089338831    0.25648650612300   -1.81090462289639
H         1.73895424695004   -1.83391430291704    0.18126221141568
H         3.01534382681139   -1.92655782921366    1.42735826879820
H         3.33630415236289   -2.04004389619774   -0.35961043757322
H         3.96154693305724    0.10928255192974    0.94603281537551
H         2.34005880207299    0.48850679397816    1.13652564043467
H         0.73642742130575    0.45726104526802   -0.66253802635948
H         1.43687528593757   -0.10051913468836   -2.20773745693820
H         0.88976117244475    2.88000723708268   -1.59273839469027
H         0.05431233791831    1.88260998212211   -2.77865610201881
H         3.12981770280350    3.79935006713037   -3.74927662584663
H         2.87904655718051    4.26533780755936   -1.39490876542620
H         4.53527916198769    3.77529273174111   -1.74298941199556
H         0.76571994369703    4.11032579337826    1.81764273153256
H         6.50657214183879    3.01481764822449    1.40342993615819
H         3.88990297681810    1.28770173249514   -4.42474994622263
H         5.48324643397268    3.66864928055064   -3.90935625396191
H         6.22518443068257    2.29743489738562   -4.35240036087116
H         5.45763957643019    1.67593728374486   -1.81589826773598
H         5.59279900194866    0.35159779931541   -3.08957919364019
H         3.48463798944414   -0.45701323282265   -2.39237610665672
