37
 energy: -49.853029219039 gnorm: 0.325654229413 xtb: 6.4.1 (79825abcba525fcdf90b791dcacef51065a7a4e7)
C         2.64335810725271   -1.32768134587401    0.25118933911246
C         3.02765040782623    0.10001200160151    0.60054934089210
C         3.01603727480362    0.90714750891171   -0.76409935162163
C         1.46058674253079    0.74422425110800   -1.52705923587259
C         1.06721743425066    1.98608814984739   -2.31019136617393
O         1.89533218190046    2.22456576096541   -3.38005877378553
C         3.13903089777346    2.83285500549165   -3.13574902938151
C         3.32201679757914    3.43649708622552   -1.69550877418978
C         3.20248478856313    2.39579337845917   -0.49014911372724
C         2.05297345718647    2.76336123047273    0.43392520772001
C         1.24434062977048    3.22381110044752    1.34723478869473
C         4.48961743408909    2.65907033029112    0.27430284865147
C         5.72031680609065    2.83066190340763    0.66923529810327
C         4.29884756625542    1.92083398785407   -3.60129954086980
N         5.30109320876526    2.79288417205038   -4.39771751634900
C         4.92944995999758    1.10776348585572   -2.49635691802544
N         4.07615609504422    0.32286566769336   -1.61708207393520
H         1.75254688511981   -1.43251738292420   -0.36473323616805
H         2.58952675380629   -1.90755792442482    1.18136531021681
H         3.46465503205751   -1.85022302291002   -0.25845501271640
H         4.04056019898218    0.15044658719575    1.01455830181083
H         2.29072366622011    0.55776724995079    1.27015424669774
H         0.76712065399094    0.58254387465417   -0.70568912607715
H         1.53015735852325   -0.13126564710819   -2.24165174881922
H         1.02246254515076    2.85073281502217   -1.62170283377448
H         0.08608939793042    1.95606663442931   -2.82146258149682
H         3.17638547577647    3.65449808785012   -3.85610844836019
H         2.52642725805716    4.22726155225952   -1.56905876415229
H         4.37552010871006    3.90554786711505   -1.63434960561335
H         0.60786299162092    3.67231947973967    2.07561565174813
H         6.63207509529375    3.13176692436042    1.13779393978809
H         3.87151915323420    1.24339701849982   -4.34448118067713
H         5.87464817106234    3.28100230199013   -3.70957432533394
H         5.90739318753254    2.14261891380244   -4.90350545645254
H         5.52798368988828    1.72494883046100   -1.79995472572953
H         5.62060887937265    0.37025103319449   -2.92718676481702
H         3.77253353134632   -0.60909034058190   -1.97035870321696
