37
 energy: -49.831848751090 gnorm: 0.336663995864 xtb: 6.4.1 (79825abcba525fcdf90b791dcacef51065a7a4e7)
C         2.59695809982006   -1.28733567797756    0.11221739766682
C         3.10450734913401    0.08719406841688    0.51359379624117
C         3.20530859318085    0.94342360649176   -0.81703715684516
C         1.67274150959653    0.69782302634527   -1.60380053965199
C         1.12052595723183    1.93400861396817   -2.29457146093539
O         1.77593488917800    2.60960787886273   -3.29520458111529
C         3.13273165805208    2.92583322948272   -3.10654189900406
C         3.62099881369095    3.44365767633387   -1.66716709374428
C         3.45293519743474    2.38806185779516   -0.48069496202610
C         2.23005782930026    2.97243395680067    0.20740098594946
C         1.22564161460637    3.20485872863840    1.00562546090632
C         4.56131433846766    2.67275868825727    0.51973265373606
C         5.28848585878939    2.81155331884682    1.59304243555052
C         4.03558404799401    1.81386455190718   -3.63006673135894
N         4.85390177077388    2.50447582152882   -4.74929040079898
C         4.91098777845658    1.15232327051768   -2.59292032811554
N         4.20612161717222    0.26965957350649   -1.67565932431546
H         1.61274808045344   -1.32950766568444   -0.34978694009070
H         2.44161351894682   -1.95811828752010    0.96679375476221
H         3.31914275369631   -1.73501763558404   -0.58445038457937
H         4.08086487523335    0.08725669998820    1.01024185015823
H         2.34624636623127    0.33519846435145    1.26492975382399
H         0.99139691872206    0.63649740319956   -0.75899681466406
H         1.75203207220634   -0.25591330072534   -2.20883369334005
H         0.82233800123583    2.62465771592663   -1.48357354654471
H         0.15102887692458    1.59928625015650   -2.71044177850112
H         3.27931076439436    3.81037360944623   -3.73225213032822
H         3.01087025542203    4.36827912103016   -1.45018992397421
H         4.74669838312695    3.67929981371520   -1.77152978475440
H         0.45919389852442    3.57806080914547    1.64600063745714
H         6.09161786933055    2.97527175471511    2.27838166835046
H         3.47170366767737    1.02817403261864   -4.13857306797773
H         5.40803338827807    3.19574913828332   -4.24347916434574
H         5.51157032622564    1.81602293225396   -5.12314960038533
H         5.50203926235602    1.90129582720649   -2.03271086588067
H         5.49651045380754    0.40120888681163   -3.14085281101461
H         4.89422063248868   -0.12199456742446   -0.99841504166157
