37
 energy: -49.857701614287 gnorm: 0.327723928148 xtb: 6.4.1 (79825abcba525fcdf90b791dcacef51065a7a4e7)
C         2.56628176593988   -1.44560093313267    0.30567264880800
C         2.97685458578323   -0.00183614638805    0.54022430109552
C         3.06372853651285    0.91553297230074   -0.75002972915551
C         1.50101636636153    0.70323793766842   -1.48551570629431
C         1.02484892643421    1.77026397924762   -2.45761718492192
O         1.92993734468745    2.06998376061951   -3.44667981379944
C         3.02774813851475    2.88325820834812   -3.11518971489447
C         3.20709665054890    3.38325473506077   -1.68097416485749
C         3.26362234773713    2.37295089443619   -0.44552484450886
C         2.19110591255145    2.84816111918310    0.52105652001577
C         1.42327703470655    3.52188074442562    1.33135043848074
C         4.58104779656761    2.61200210230369    0.27395881680696
C         5.85095747483611    2.47058212238997    0.53350855705387
C         4.26827162873243    2.05588403236892   -3.59005634916092
N         5.26629047417714    3.08952840621283   -4.16866427846948
C         4.92319421377028    1.21885978204708   -2.51762545076226
N         4.10602514710879    0.37912530353331   -1.65485086938081
H         1.52014070515653   -1.55581207922638    0.02757512802712
H         2.73433228432028   -2.06058089434886    1.19894789682563
H         3.16696285670576   -1.88923424541827   -0.50035931065647
H         3.97511857064986    0.04774880434589    0.98849170039959
H         2.24907206883403    0.44482592540972    1.22709926885927
H         0.81655297050202    0.55638851303542   -0.65387292031239
H         1.65127963724623   -0.27453524559701   -2.03628393656846
H         0.69449943366649    2.60464687444348   -1.81085273544368
H         0.12456446218252    1.37653265439018   -2.96690619702552
H         3.01403828110705    3.71777418592029   -3.82145137658534
H         2.41218810935014    4.15055941506539   -1.44940408244709
H         4.18131216340207    4.00334148886092   -1.68482900658687
H         0.69742474943622    4.00588319596460    1.94427973307494
H         6.83178322088712    2.59049798118613    0.93985283144139
H         3.92628211062656    1.46929906365900   -4.44609993082538
H         5.56430333850848    3.77116426114862   -3.47057649829055
H         6.10562750099903    2.65142006896339   -4.55575658130799
H         5.44183107905247    1.98842461470324   -1.91519523979905
H         5.67014604603958    0.54216486063101   -2.95510295883575
H         3.77214712973846   -0.42069489830784   -2.23307760131320
