37
 energy: -49.855951042854 gnorm: 0.312760615448 xtb: 6.4.1 (79825abcba525fcdf90b791dcacef51065a7a4e7)
C         2.63043929756099   -1.27764750629839    0.47455044806544
C         2.75546612277454    0.23294674484869    0.57709106824801
C         2.98022659927254    0.97283347671650   -0.80707618970539
C         1.48489343900225    0.91288366872179   -1.69503051918757
C         1.09896279068590    2.11770299181680   -2.53748480415538
O         1.97059122020423    2.48901512048921   -3.53229788203624
C         3.27387843424780    2.89137878587745   -3.19165808621527
C         3.46779656519982    3.37463762862198   -1.74558425505533
C         3.33484116215305    2.43597389277908   -0.46048611438103
C         2.23154560039359    2.90339093829242    0.47474432880127
C         1.58508391199605    3.44068663069529    1.47145698130896
C         4.60140589783595    2.54166173224877    0.37321394031956
C         5.51274295372858    2.92933864688696    1.22127503150907
C         4.18919171797115    1.69974160024453   -3.58927906988920
N         5.24487194204856    2.21257818341143   -4.60011404494811
C         4.90032246650088    1.06266698124568   -2.41963373549065
N         4.06629514707957    0.27065352505924   -1.52833559683000
H         3.43074969509784   -1.71467608692599   -0.11908675945320
H         1.70311778044237   -1.56930987282920   -0.03475286625510
H         2.65476044797007   -1.77303652499704    1.45501666881634
H         3.72570810339450    0.40487422639444    1.05563547814390
H         1.92286531460269    0.64400860562068    1.15913544844973
H         0.72726596654841    0.78068376921713   -0.92678028860448
H         1.54206618874418   -0.06505602946727   -2.26277193505081
H         0.88956342936070    2.95250262121707   -1.84258096731651
H         0.10016545858840    1.97542126822471   -2.99253597827159
H         3.59064311616717    3.72915488037047   -3.81871610869930
H         2.82850187001336    4.28458625131598   -1.55178912121928
H         4.54467713937210    3.79130061425374   -1.76398220796767
H         0.75826287153566    3.79166243529936    2.04590035741547
H         6.48451439312796    3.00414880573045    1.65897160569025
H         3.51915141373790    0.93981835413000   -3.99843921026950
H         6.07403272204661    1.62405066970936   -4.68314067571313
H         4.81596593673848    2.16870197982142   -5.52768103878618
H         5.41884640076044    1.81403829733560   -1.79456536821237
H         5.70888100758366    0.42943740956845   -2.81013728440437
H         3.62766653833249   -0.50972130465107   -2.06139573232862
