37
 energy: -49.854940916603 gnorm: 0.327889467137 xtb: 6.4.1 (79825abcba525fcdf90b791dcacef51065a7a4e7)
C         2.94830491574550   -1.47732420113075    0.08368141966960
C         3.12417399250357   -0.01845449113461    0.46944107879652
C         2.94888387393434    0.91871637359059   -0.79738676688944
C         1.28982515412123    0.87001809555508   -1.32010157740809
C         0.95430588553771    1.85717840500910   -2.42608649276113
O         1.95527477314150    1.93777708121735   -3.36354423343982
C         3.08549977089076    2.74127674704791   -3.13230995064743
C         3.18383731685375    3.36882059380677   -1.73297360178257
C         3.27490720450852    2.36186536801212   -0.49685407497010
C         2.29103893284847    2.95848760638135    0.49634327823315
C         1.34278779352036    3.55423126116738    1.16413426849524
C         4.59852126119823    2.58584047357335    0.21609259521490
C         5.61813615954236    2.80848907374380    0.99766111510642
C         4.35297929194014    2.00554476522586   -3.55861573962194
N         5.38820607061641    3.07912003042379   -3.97693512719687
C         4.86581246720777    1.00361282394457   -2.55224814307195
N         3.82670470753190    0.29923175608523   -1.81644814891456
H         1.93215613661667   -1.85060708959107   -0.02585118153305
H         3.50151652360813   -2.12837437108422    0.77250112852197
H         3.41897885505767   -1.72159055330932   -0.87866768554992
H         4.14893871473367    0.14717992643309    0.81923504092511
H         2.44260314292534    0.21135191319845    1.29625533440237
H         0.62404366516326    0.99813039561907   -0.47039170642225
H         1.13912120868198   -0.21778573201761   -1.59566689737668
H         0.73041567128430    2.85709886073705   -2.00935863131214
H         0.08210685306819    1.46340869707557   -2.98207753181988
H         3.04963591164247    3.56545307947319   -3.84984571175033
H         2.28177265009094    4.00032022793011   -1.48448151737914
H         4.10713801860264    4.06200487007023   -1.70788017006087
H         0.81321094824371    4.10465832765654    1.90802987858972
H         6.55547309086354    3.12624096109079    1.40008850470620
H         4.04554598631967    1.55866253757629   -4.50710422504070
H         5.93547561604247    3.31225085029055   -3.14813375149277
H         6.02951314557496    2.68996504415949   -4.67231246574377
H         5.41914313255861    1.51840952885568   -1.74419745391684
H         5.50908642061046    0.23508572133255   -3.00258617163325
H         3.20365114921874   -0.05726454446896   -2.57159561168141
