37
 energy: -49.856811547093 gnorm: 0.320158423606 xtb: 6.4.1 (79825abcba525fcdf90b791dcacef51065a7a4e7)
C         2.65827162211405   -1.30505079380978    0.46796441276480
C         2.91461964891437    0.18850713295777    0.57572194642632
C         2.93085690730355    0.93781144219856   -0.82147097137725
C         1.36472614481063    0.78223163118506   -1.56383711311121
C         0.98300634915517    1.95865683846785   -2.44733867984200
O         1.88945091170926    2.26125231512315   -3.43428148903884
C         3.13415946210461    2.85260280071545   -3.15590264677861
C         3.36792776304114    3.41081574168349   -1.79367478711859
C         3.27887603087756    2.42587391023319   -0.53979943214779
C         2.29287261599365    2.90913704992135    0.51122382837975
C         1.50319255407827    3.76509372638954    1.09755061061282
C         4.62128938557628    2.54276600390574    0.16353161071545
C         5.71410773548134    2.49638276444807    0.87320263705064
C         4.27364437120072    1.85302877742200   -3.57921538006158
N         5.46513459597658    2.70457442141810   -4.08366607519176
C         4.84154337615885    1.02084244097198   -2.45467198757121
N         3.94977976865261    0.22460264274975   -1.62517870343505
H         3.46066600815617   -1.80206294832271   -0.07336544451913
H         1.74963855837878   -1.46569479199118   -0.12614118349754
H         2.44167325659969   -1.72174177293895    1.46132717844653
H         3.91943086272371    0.42953956490812    0.93930289134326
H         2.15239304358533    0.69588295428258    1.17784485565184
H         0.69393050070175    0.65364760230044   -0.71815161088100
H         1.47987486670524   -0.14181053927191   -2.20792711543406
H         0.80265481906054    2.80265079169509   -1.75540126298744
H         0.04363204882678    1.71548425002613   -2.97964947885536
H         3.29403009764593    3.67293674408607   -3.86081683519782
H         2.73680821442927    4.30458277155549   -1.51595302526258
H         4.45682873826634    3.79511739494793   -1.77866762961248
H         0.79348253636989    4.01117238016824    1.85422708356777
H         6.65862112133766    2.44238520886042    1.36968354127394
H         3.79733014967071    1.21406452259989   -4.32667695980671
H         6.29412066533357    2.11254540310208   -4.02844476429816
H         5.32793585245237    3.08361680305572   -5.02375617108053
H         5.31624829733561    1.70506589495860   -1.72622851572528
H         5.61544149926857    0.33116149497905   -2.81889927145519
H         3.49748358403347   -0.58692960645186   -2.09674694793690
