37
 energy: -49.857450134287 gnorm: 0.323556013354 xtb: 6.4.1 (79825abcba525fcdf90b791dcacef51065a7a4e7)
C         2.60088617089155   -1.34640239828231    0.26920497829995
C         2.83445443688807    0.12503098310592    0.56647749104381
C         2.93654861640579    0.95681529502969   -0.77947209308356
C         1.35945031426329    0.84273784171873   -1.50598803329675
C         1.07501898199020    2.04233402615068   -2.39499258940503
O         2.00255223761191    2.11285002455084   -3.40591861531670
C         3.22038725779488    2.75875189252359   -3.12991464314028
C         3.42538223162036    3.30640848750616   -1.76364986319573
C         3.27863829815856    2.40924256118691   -0.45071287434382
C         2.22488982398136    2.96421811062394    0.49375107084505
C         1.61525980019842    3.82027644084834    1.26547051299315
C         4.55963513509297    2.55278948106581    0.35480146106646
C         5.64421365709667    2.97286904280068    0.94408821456510
C         4.33908556161374    1.73160246393372   -3.56575238908293
N         5.49996644716090    2.50376364077332   -4.24056505193318
C         4.88393952557065    0.97179767252742   -2.38022632146816
N         3.84571544297382    0.22250910150518   -1.68888223338805
H         3.31659042174878   -1.78246760458428   -0.42470453168651
H         1.60452084246674   -1.41030163779385   -0.18637708642155
H         2.63010899406332   -1.92338691855398    1.20384431957833
H         3.78704038708204    0.22058164390966    1.09881515728541
H         2.10094055979379    0.58478428220460    1.23845659478354
H         0.65019041025766    0.78150398650203   -0.68447393060124
H         1.30993715205581   -0.12676806505741   -2.08871595915546
H         0.91300280111820    2.91860231712293   -1.73960377674931
H         0.10395864733949    1.89495943947053   -2.90512426686962
H         3.26652330823614    3.61445976137482   -3.80891826598335
H         2.75459620078444    4.19721818353158   -1.58825046334892
H         4.47219828384471    3.79404636271853   -1.76558895808446
H         0.86267385989163    4.37559180662588    1.77737042454725
H         6.60721129835470    3.03706314189149    1.40237768946737
H         3.87414696749091    1.12605661017509   -4.34741452356458
H         6.17147176686803    1.81332984181633   -4.57693899527726
H         5.17076580554077    3.01182020285529   -5.06504760358604
H         5.48427558497743    1.60687586233957   -1.70169209426574
H         5.60718204402443    0.22641435485929   -2.73878398186647
H         3.27852447715167   -0.21471857481211   -2.44562486251717
