37
 energy: -49.856117892728 gnorm: 0.322100146060 xtb: 6.4.1 (79825abcba525fcdf90b791dcacef51065a7a4e7)
C         2.53382774138462   -1.28644105679702    0.56208045731457
C         2.70517566186199    0.22212776502579    0.61594396289151
C         3.03552397229898    0.89921414001987   -0.77915197648520
C         1.56756075156347    0.88137331927591   -1.71341308462286
C         1.11759331969052    2.15990167207188   -2.40127633406393
O         1.90221460399200    2.65712286817756   -3.41340399310099
C         3.26676935162027    2.80666769161343   -3.10989742236060
C         3.48441149973229    3.39854710149307   -1.70657735585311
C         3.30585261410086    2.37456120574026   -0.49421863928957
C         2.23014722239392    2.95080950036477    0.41197765599943
C         1.55813509217620    3.83783558294056    1.09140387098266
C         4.57571397619074    2.50730916548870    0.33054926383661
C         5.75926783921925    2.66175473315730    0.85531888315466
C         4.16234955427366    1.66839977899094   -3.47749880695981
N         5.13986531646381    2.24693044881322   -4.53059644822950
C         4.96107632462264    0.97946935947889   -2.39719716240518
N         4.18161888700220    0.22309375260557   -1.42887836141817
H         3.47092282456068   -1.82381016422341    0.43176125587247
H         1.90204321740545   -1.47419073333468   -0.31540479745643
H         2.01946783064968   -1.65772094915392    1.45924316940029
H         3.53715201531634    0.55056731942517    1.24830155033837
H         1.78031627307838    0.63820239477950    1.03126147160327
H         0.77034059691107    0.65937909405659   -1.00854202826420
H         1.73179009415801    0.04104680473925   -2.45425393377247
H         0.88623264452232    2.92828334846215   -1.63990146352559
H         0.19691237600739    1.95669724371591   -2.98090236065633
H         3.59824913836197    3.66495216931490   -3.70055749219224
H         2.78490754851990    4.27315822939120   -1.56511936321983
H         4.57007629002452    3.79153921664838   -1.72910445166361
H         0.64226253134199    4.21732395992259    1.48379185389581
H         6.61320629690690    2.67344221437914    1.49732130585582
H         3.55920824174820    0.86604322882757   -3.90911656988659
H         5.82928496369345    1.53452464236555   -4.77131240498343
H         4.57724491398802    2.40378816296121   -5.37031065610907
H         5.55343810538664    1.70958694560223   -1.81395431429718
H         5.73534007953466    0.33127964824697   -2.83033150936081
H         3.89597365910975   -0.67718705098894   -1.86869004573565
