37
 energy: -49.852674816298 gnorm: 0.315704874757 xtb: 6.4.1 (79825abcba525fcdf90b791dcacef51065a7a4e7)
C         2.60538026863280   -1.34110071328700    0.31627806297460
C         2.88876610344400    0.13582745282971    0.53172396873312
C         3.00592564925358    0.96970124982892   -0.81170328181640
C         1.54701311509513    0.84732165821414   -1.75227522723226
C         1.11902649665988    2.12505917460409   -2.45546480539825
O         1.89170055204532    2.64544536934231   -3.46513548864173
C         3.22217377150013    2.90996067976711   -3.09586294031757
C         3.39982724299809    3.44346699504270   -1.61062964585739
C         3.37543103118305    2.45173874923498   -0.35918092790794
C         2.30645257113938    2.92869012053532    0.61045727919596
C         1.18116296181388    3.34310583147122    1.12233462040005
C         4.63748049428931    2.41642582806258    0.48722090643079
C         5.85387784120286    2.44547059503755    0.95580403017009
C         4.10136221336858    1.78158428824926   -3.55032122644251
N         5.05681635598551    2.26120325606160   -4.67117914360106
C         4.90362345902952    1.21119284234800   -2.40547551097835
N         4.19028060205151    0.36368659207244   -1.46198498077005
H         3.32575911272142   -1.84859516502240   -0.32200051987984
H         1.59753028291560   -1.46090894641051   -0.10117419986485
H         2.57325320156294   -1.82384406105429    1.30280860990823
H         3.82123794118598    0.24626103562390    1.09584630278629
H         2.12850280197994    0.63022903029872    1.14697872280918
H         0.73201265773578    0.58801972492087   -1.08128984792228
H         1.73822291926980    0.00466662618959   -2.48394209120599
H         0.91680271359387    2.91960578913909   -1.71288075275061
H         0.17048082064916    1.87943258887620   -2.97009132198102
H         3.46181598131396    3.78501526695675   -3.70599529686873
H         2.63619685114924    4.26502184191674   -1.48344076539907
H         4.42010828382916    3.98088180157889   -1.67251841870193
H         0.37783120399278    3.65049156427090    1.75239362974751
H         6.73625445024626    2.66228495219418    1.51786953017322
H         3.45594447690207    1.05058335044611   -4.04319336419584
H         5.61346772612124    3.07300046030911   -4.40305565302474
H         5.73061970918566    1.51772874003724   -4.86992696355352
H         5.32211562314635    2.04004900376301   -1.80381268086844
H         5.73695029314046    0.58841446607687   -2.75896258030271
H         3.80981343335175   -0.45670272298867   -1.97942014062595
