37
 energy: -49.855831852047 gnorm: 0.318634254558 xtb: 6.4.1 (79825abcba525fcdf90b791dcacef51065a7a4e7)
C         2.75776749267758   -1.31946769885419    0.41071405928757
C         2.91807724637845    0.17635856902797    0.62248241561425
C         2.99959720567990    0.89856209599872   -0.78664682185398
C         1.44366098199599    0.74456769270406   -1.55047031119713
C         1.00635693043713    1.89775609282477   -2.43883001848520
O         1.82145129186754    2.14405757356568   -3.51689246505514
C         3.03646166770711    2.80333743555242   -3.26078818499457
C         3.26828070256793    3.35446758402262   -1.81428749960072
C         3.22273581104437    2.41598218368796   -0.52300332380105
C         2.20736135212055    2.91548270978618    0.49184136979006
C         1.64719545915763    3.46795145966632    1.53156632178986
C         4.58483577012311    2.54398272012576    0.13934971359483
C         5.68284896758021    2.86996428120669    0.76235798515681
C         4.21059366483152    1.86843053628584   -3.59001296794881
N         5.26678775401571    2.83609023895227   -4.17936701195952
C         4.88820366333580    1.07603227481777   -2.49795486271711
N         4.06245308086804    0.27451230663394   -1.60744884219088
H         3.71343490475948   -1.65247969867335    0.01109092138078
H         1.95782813933725   -1.44601191590183   -0.32987056808349
H         2.54890944608557   -1.91319603209551    1.31136981537090
H         3.82775487614184    0.38341271757193    1.19654556688824
H         2.03947165366667    0.48728918988990    1.19897697867375
H         0.70633256375749    0.55817330655686   -0.77375379030498
H         1.55879506007310   -0.15912384854691   -2.22281756849720
H         0.89012176250351    2.80196397029868   -1.81230998176237
H         0.01226525238245    1.67228519945220   -2.86994065687508
H         3.04480614921417    3.62041918490097   -3.98723033431350
H         2.59413027862034    4.25085146245321   -1.68670259382341
H         4.32609877068546    3.81564036412717   -1.85854703633974
H         0.95737312344969    3.80846585411455    2.26980568091861
H         6.70343971047667    2.90553694766216    1.07643396934952
H         3.86534510539846    1.24460487357466   -4.41795882640667
H         5.79096890278009    3.23724571106535   -3.40150194308795
H         5.93093614146523    2.34448508973206   -4.78227439075412
H         5.54110078510037    1.65820425711067   -1.82050558764367
H         5.47868332600349    0.32561834002583   -3.04151012303838
H         3.63178294562285   -0.48209166899536   -2.17981821422657
