37
 energy: -49.854456314552 gnorm: 0.316148227376 xtb: 6.4.1 (79825abcba525fcdf90b791dcacef51065a7a4e7)
C         2.69045453560112   -1.39167122663219    0.47946833847486
C         2.92271101704865    0.10964215116668    0.49197216525900
C         3.05584202427008    0.89416156604486   -0.87940454014209
C         1.54739704205225    0.74578976136499   -1.73418970253434
C         1.05730168186596    2.04836982745712   -2.34521588700191
O         1.77563246290292    2.52132812946608   -3.41646432200384
C         3.12391606539878    2.84954410949295   -3.19086478810447
C         3.45078255203993    3.40938927100504   -1.74711655974881
C         3.24564375202215    2.37937198055646   -0.54410929417126
C         2.13773051776868    2.84585061827447    0.38611745661123
C         1.46615046891902    3.26892205044162    1.42053823363491
C         4.43937234937520    2.52988173042022    0.38474527880634
C         5.42136277644424    2.79855190454572    1.19932949251919
C         4.20919843849517    1.82946752186316   -3.61207952628796
N         5.13575480143628    2.67623176937999   -4.51967693630738
C         5.00053904346931    1.15180286602789   -2.51928865841613
N         4.23502412919621    0.34132620705813   -1.58418772411109
H         1.72253379027310   -1.67830159760199    0.07342855227301
H         2.71240287697240   -1.77175778156502    1.50875667473698
H         3.47003116031375   -1.92607791852609   -0.08087582544648
H         3.87915562639894    0.21391208426757    1.01568468402576
H         2.17511297562132    0.64429503321533    1.08880973426010
H         0.76861811809590    0.46477800661003   -1.02976057307298
H         1.68727925223055   -0.05218567932707   -2.52515952190269
H         0.90176371116989    2.80587331441266   -1.55425048756771
H         0.05752756891481    1.90258749003706   -2.79700234506136
H         3.28483912588551    3.66448197436222   -3.90177297963829
H         2.89639493118694    4.38328660907367   -1.61132591370636
H         4.57173390646451    3.66576143501728   -1.85369835381274
H         0.61093386729724    3.59212303847545    1.96912547862787
H         6.28124092103267    2.65430269313378    1.81683765341785
H         3.69277615931439    1.13832421012847   -4.28251097087665
H         5.83845359219715    3.23752621618063   -4.03808726831568
H         5.62838340229030    2.06287173916706   -5.17341430377901
H         5.51970938906003    1.95551187830341   -1.96372555258189
H         5.86156618829385    0.58646298891600   -2.90173173343107
H         3.91394520146064   -0.53203941038139   -2.05288150438366
