37
 energy: -49.856330145089 gnorm: 0.325525024567 xtb: 6.4.1 (79825abcba525fcdf90b791dcacef51065a7a4e7)
C         2.74834682609677   -1.33557903298184    0.40860450849059
C         2.84107764198721    0.17298813836867    0.56244651469836
C         2.98334583015288    0.99543515186201   -0.78559254952774
C         1.53337235572607    0.87380655287339   -1.73998321309145
C         1.09539805706951    2.16999707952596   -2.40204810536171
O         1.90163818165992    2.55697029752636   -3.44487621498599
C         3.23164350778114    2.89211699879887   -3.13624686899797
C         3.47743175720532    3.42502442150844   -1.73421766911431
C         3.27210659655286    2.48413637576654   -0.46031998149807
C         2.27225863997983    3.00777890260140    0.55776567455913
C         1.27989647666085    3.42471920638853    1.29357388215429
C         4.52017399731858    2.57629994844673    0.40237675608617
C         5.58819700469343    2.63581137587948    1.14791117994199
C         4.19386381751221    1.75230920491434   -3.59165116080014
N         5.28876727493868    2.25955246866093   -4.56280518241053
C         4.89969238466583    1.06103885754901   -2.44990138054355
N         4.10439833641209    0.32247790672921   -1.48070874994863
H         3.67229661245052   -1.71412051007653   -0.02373677950520
H         1.92305286026178   -1.61906049057813   -0.25691042849043
H         2.63431192980442   -1.77854901495610    1.40764877467055
H         3.68286610089643    0.45558690281643    1.20390067592953
H         1.95361997449343    0.51199228588772    1.10876757062764
H         0.76064824116328    0.48388290669516   -1.08230425623158
H         1.79260963575258    0.14031126279502   -2.56262881367005
H         1.01776732030731    2.90360269572071   -1.57777501652871
H         0.12754534960940    2.06855248197736   -2.92919315273382
H         3.44332030554696    3.68301041431487   -3.86087846531383
H         2.83592170052231    4.34280619743849   -1.59138132243993
H         4.50653250407919    3.94893721844718   -1.74345543604997
H         0.48606351920595    3.83459559942159    1.87549555468482
H         6.53464424503006    2.60393139804833    1.64261907567660
H         3.50304613034686    1.07645379712733   -4.10139596033806
H         5.98912973827898    1.52075399187405   -4.62940011870187
H         4.77475225562918    2.32600165636761   -5.44464364611919
H         5.47669951341948    1.85274638200199   -1.93570457194237
H         5.57667205274875    0.27169449542112   -2.80468812432767
H         3.69484687326051   -0.52109710192764   -1.93478125867964
