37
 energy: -49.857691163993 gnorm: 0.325958447044 xtb: 6.4.1 (79825abcba525fcdf90b791dcacef51065a7a4e7)
C         2.79465219779622   -1.40762312189930    0.40979096951323
C         2.87150744739896    0.10602015140224    0.51476043809127
C         2.97474418504206    0.94890021278734   -0.82418094379406
C         1.43500620920559    0.74294708736904   -1.60831639583781
C         1.00022077739940    1.93079475413421   -2.45107427210843
O         1.83633123297243    2.31424560621297   -3.47144019972660
C         3.08490547292082    2.88724443662848   -3.17273589820282
C         3.30436610856982    3.40588240619930   -1.75228898589913
C         3.24249082132902    2.40301162243088   -0.51105345483687
C         2.21613925366675    2.89997406184481    0.49394733897387
C         1.38815972899275    3.05536682185156    1.48910485809639
C         4.58992516236235    2.58871663112480    0.16743479751125
C         5.82173946752272    2.76741839641734    0.55568141328133
C         4.22229487593219    1.95971955903579   -3.54441741206298
N         5.30093902277224    2.82681026780384   -4.24006815103584
C         4.89055031971126    1.15265572970959   -2.45734618289055
N         4.07242355761906    0.31707183034490   -1.59145507848177
H         2.02462630991011   -1.69142531673138   -0.30464047791478
H         2.53481317775612   -1.81377961716563    1.39564216680358
H         3.76411090912227   -1.79815454915069    0.07074699058996
H         3.79049687580343    0.35854474557842    1.05478180061695
H         2.01873084228686    0.50267028606601    1.07726586225058
H         0.72944475183730    0.56040778603531   -0.80175142592770
H         1.51728225776055   -0.22550823357538   -2.18908316073125
H         0.72579032142126    2.78343891559361   -1.80198589977220
H         0.09174762032510    1.53498435444474   -2.94394587915035
H         3.14561423693433    3.75932576189280   -3.82939335829222
H         2.64586028552106    4.29930219277027   -1.54629887016776
H         4.37173183530391    3.84071532242184   -1.67970076758408
H         0.72681805128665    3.51429447109422    2.18825781000778
H         6.72375957916460    2.81574847655873    1.12624123770931
H         3.81015244219020    1.24454958968524   -4.26032236317857
H         5.62535382297641    3.58001639618504   -3.63327228711442
H         6.07829150409694    2.26205589808735   -4.59084105814122
H         5.36745754441071    1.88703867760787   -1.78104922612089
H         5.63545281238263    0.48242022539450   -2.90806147188852
H         3.68995082592403   -0.41474447172926   -2.22682312056274
