37
 energy: -49.852862605614 gnorm: 0.319541030248 xtb: 6.4.1 (79825abcba525fcdf90b791dcacef51065a7a4e7)
C         2.74141649324317   -1.35658275098771    0.28546875695450
C         2.79099559013731    0.13138004897636    0.58804089126421
C         3.07874616597899    0.95104575367959   -0.73831365573251
C         1.70592160481345    0.80871455063588   -1.79811207231443
C         1.10825582270517    2.07346623245966   -2.39263716438470
O         1.86352710864073    2.68966553784234   -3.36068963024585
C         3.20138132613792    3.00562344350563   -3.06606063203297
C         3.36259381921277    3.47397185839672   -1.58283030535317
C         3.29347450908601    2.42790054733254   -0.37817212124133
C         2.22805138864561    2.87995904323413    0.60717679941541
C         1.10565400042999    3.24434631482950    1.16168697456753
C         4.59890078186143    2.57433508680251    0.38657041371801
C         5.79816832731531    2.53871337150198    0.89698662298441
C         4.10646005191573    1.82397906613955   -3.54493157808957
N         4.98850870810727    2.43128193341641   -4.66404856876329
C         4.94098604530438    1.16635465073577   -2.47220714259910
N         4.24550711957686    0.38983326216056   -1.45701117474545
H         3.64383523482818   -1.64085638203184   -0.25186239268241
H         1.89669505630279   -1.59267322183025   -0.37414399435354
H         2.56481985273397   -1.98202150496835    1.17144607032616
H         3.68027264813488    0.26790866466205    1.21292453106746
H         1.90176584745483    0.47153474843362    1.13075339785136
H         0.95547255248367    0.42352534609496   -1.11244443139282
H         2.00476142627478    0.08448082199637   -2.61551366229891
H         0.76840598646258    2.75374534308307   -1.58929895623319
H         0.18418258113571    1.76766667563338   -2.91940755631103
H         3.37416071850639    3.89751145622257   -3.67441370889813
H         2.64029827692244    4.33514620027800   -1.47829008260552
H         4.44717140929218    3.86811749786777   -1.62709054482135
H         0.35180070900209    3.54471147433725    1.85327083330229
H         6.57528920402034    2.73081481561594    1.60458451531158
H         3.43210999942040    1.06184908603834   -3.94274971476060
H         5.89750976252640    2.65128318174486   -4.25651674340442
H         5.17798876301704    1.78078995687249   -5.43035366983091
H         5.52009928667040    1.91475121741296   -1.89891243528474
H         5.61387834842322    0.45476443787231   -2.97029844330548
H         4.09262231530180   -0.58989417105564   -1.77684461964582
