37
 energy: -49.856101669574 gnorm: 0.316917824163 xtb: 6.4.1 (79825abcba525fcdf90b791dcacef51065a7a4e7)
C         2.34854002717277   -1.19181226041128    0.43152664713181
C         2.91329876659770    0.21407169369993    0.54368346307150
C         2.88468455630558    1.01167523263334   -0.82630867838674
C         1.22423923905353    0.97412671574308   -1.34552885188582
C         0.99699313302313    1.93169065020619   -2.50384306138142
O         2.03181533008368    1.78219082891831   -3.39494053083242
C         3.18299711412660    2.57491407970174   -3.24374562404804
C         3.38004666474338    3.34826078507235   -1.88382502723589
C         3.32913565774186    2.44091688386207   -0.57066884671162
C         2.33045015495554    3.12901066644498    0.34560083283490
C         1.77935749573665    3.54814722171065    1.45043428477277
C         4.67501619124899    2.63875439673094    0.10747408330321
C         5.74520442308952    2.78689806553833    0.83739663550121
C         4.41100486270968    1.77976904383080   -3.62847933531876
N         5.61996602615347    2.73186495616928   -3.80504581676033
C         4.82986509428571    0.83769229845472   -2.52544319255088
N         3.78715786521754    0.23631375355612   -1.70788295832738
H         2.82084102377861   -1.79511496732102   -0.34103626896078
H         1.26490388106406   -1.08852576224803    0.29207557926925
H         2.45632237518268   -1.66511092137005    1.41726857648126
H         3.95687187198473    0.11820447711329    0.86258464315988
H         2.38561915244210    0.78183276476742    1.31839193130157
H         0.52990093229942    1.14509741895575   -0.52678105691884
H         1.10742483214908   -0.09102604222248   -1.71127341930024
H         0.82203175919880    2.95390981690049   -2.11902316939062
H         0.06551044585169    1.63811144489197   -3.02448019449011
H         3.11349481261533    3.42416906442100   -3.92883380290528
H         2.68075383494875    4.22794726320493   -1.77704486683212
H         4.38302780687137    3.91975425396215   -1.91611049925032
H         1.03432381230070    4.14523454609340    1.92500129379404
H         6.71845673584641    2.98490142016799    1.23121025532530
H         4.21115641214648    1.20968193888488   -4.53892464359394
H         6.40661945459379    2.14762156596334   -4.08895020105153
H         5.48356617087928    3.36488002257249   -4.59684946406329
H         5.51875919791630    1.39072876104883   -1.85932610533491
H         5.40626445401037   -0.00022531402214   -2.94125261929063
H         3.16859346582307   -0.33759974438909   -2.31905758152343
