37
 energy: -49.856497795189 gnorm: 0.322130605124 xtb: 6.4.1 (79825abcba525fcdf90b791dcacef51065a7a4e7)
C         2.66947340104137   -1.39252887972341    0.46398892026340
C         2.98515588296774    0.09281509322057    0.51023964992686
C         3.12179612315440    0.89913822711290   -0.84808324770453
C         1.63546533037605    0.67356391394178   -1.72444797461457
C         1.02069049669823    1.89555898422287   -2.38704984677130
O         1.73715659013414    2.47183678787353   -3.40775651666382
C         3.05526792704446    2.88498125385086   -3.14625373319003
C         3.32464880377512    3.42190343223494   -1.70149220447576
C         3.29924913213124    2.36636272163569   -0.50339676576743
C         2.22774701374023    2.74905112186099    0.50448649615232
C         1.49390278697858    3.31234900129867    1.42329204727356
C         4.59911210993224    2.48739197364935    0.27514042602968
C         5.54040705436424    3.00182361589689    1.01632881105482
C         4.09504408742849    1.88215199838235   -3.63303779105234
N         5.05459556010814    2.70405388454331   -4.52913360297031
C         4.95649030580421    1.19143161435160   -2.60325286990202
N         4.30104141358993    0.38719971802704   -1.58300924073654
H         2.11008337028445   -1.69222853473405   -0.41984293993348
H         2.15305022850068   -1.73951753582134    1.36802872996569
H         3.65418333110205   -1.87961838765976    0.48413769533591
H         3.88806953271890    0.28477825066699    1.10001113054364
H         2.19334247760159    0.57760725283944    1.09245929295537
H         0.87596029335503    0.18549790542942   -1.11894959536359
H         1.94007848729289   -0.03098448227678   -2.55678653190969
H         0.69249018095834    2.66143922018657   -1.65949100163241
H         0.07893206149684    1.59638435701842   -2.88554494477332
H         3.20102913443702    3.77389981039946   -3.76592129085943
H         2.49360613683749    4.15344401884123   -1.48131677242487
H         4.34623143918177    3.95829370612649   -1.74916504353743
H         0.77125038928085    3.64243183454482    2.13436244988599
H         6.44968272099284    3.03021607742931    1.57662002482236
H         3.56463501542635    1.14987341867065   -4.24645744168126
H         5.38580235312066    3.41675228546489   -3.87865016392034
H         5.79967850003676    2.05494274952529   -4.79327780168150
H         5.62879490295977    1.83987303813144   -2.01023799878424
H         5.66892076250167    0.52156056358049   -3.10420720535399
H         4.01666863866645   -0.54376096461584   -1.95446229503030
