37
 energy: -49.854919201673 gnorm: 0.318321563926 xtb: 6.4.1 (79825abcba525fcdf90b791dcacef51065a7a4e7)
C         2.83969826071629   -1.40280066111721    0.36002931493754
C         2.88709278038082    0.10049990397598    0.57423120067165
C         2.97180954837518    0.91238904298156   -0.78500672584354
C         1.41310208311362    0.91802898085273   -1.55861991063376
C         1.03949405566959    2.17168513903929   -2.33258668495885
O         1.88760461153001    2.26827110902872   -3.40898879915805
C         3.15566641931687    2.81349946535764   -3.14209023580148
C         3.48727879218656    3.30365706445446   -1.73314621456845
C         3.30786324035999    2.36984545649228   -0.45016143724307
C         2.20014349187203    2.93523325698537    0.42373181692682
C         1.34688414254486    3.72402068092780    1.01516936102741
C         4.54263842962894    2.59835760469071    0.40629895848655
C         5.69181634509274    2.64443239029632    1.02054929860082
C         4.23221734982368    1.82280634719282   -3.57478957508258
N         5.41886427399836    2.51308561462934   -4.29216887059928
C         4.89444089190925    1.06023226641536   -2.45247857917278
N         3.96855040161626    0.26038752509747   -1.66490353767517
H         3.71516735347673   -1.75270224784215   -0.18312682656275
H         1.93562430553170   -1.64031788171385   -0.21496446903562
H         2.76162570104776   -1.86269163465149    1.35487642686987
H         3.77854922899398    0.37899037523454    1.14666614868083
H         1.99555886739001    0.50260965884014    1.06864666026442
H         0.63873017380932    0.62237963356732   -0.85532464781146
H         1.43031936940697    0.06231220940842   -2.29984690961713
H         1.01197703894207    3.04118561745670   -1.64932861655291
H         0.00690725193253    2.05311248725927   -2.71287182738679
H         3.28710695500944    3.70834380274346   -3.75640889025468
H         2.96449997939641    4.29429918833077   -1.59317745004963
H         4.61011793603139    3.56659807232823   -1.79407723195169
H         0.66016314206799    4.15308579144463    1.70879725779332
H         6.32158808258772    2.75725410483331    1.87622062782012
H         3.72202814369581    1.15938261198321   -4.27723195083342
H         5.91869924393176    1.71612338241323   -4.68686097610011
H         5.00630947767546    3.07540068942315   -5.04041101548353
H         5.48321748021408    1.65993745755562   -1.73287299167682
H         5.54847212264822    0.28397438693956   -2.87308109970246
H         3.44573545626501   -0.41043293728100   -2.26673198453648
