37
 energy: -49.854671837172 gnorm: 0.332007523004 xtb: 6.4.1 (79825abcba525fcdf90b791dcacef51065a7a4e7)
C         2.66573726304350   -1.34919614316960    0.39900153294180
C         2.92258338182860    0.14229688623880    0.53136426196451
C         3.09220454032998    0.92327419280493   -0.83800484650581
C         1.62177863166957    0.69924809767505   -1.74118704691234
C         1.09966419154410    2.01366357645265   -2.29793631702885
O         1.82567501750384    2.53889029757226   -3.33923696917563
C         3.12479970227927    2.99563592286848   -3.05613267874279
C         3.39449346875502    3.47733658660388   -1.67203383231000
C         3.24151787710596    2.37403764859961   -0.52766765992344
C         2.11245856141953    2.78558683699805    0.40305686887131
C         1.35683648580889    3.48478618609363    1.20317629899494
C         4.51140235205923    2.46029424051002    0.30321453998535
C         5.69357555890454    2.46469694907813    0.85319939761075
C         4.16221932657893    1.92246743407684   -3.53784950352518
N         5.08217054044307    2.64469297302226   -4.55339343580017
C         4.93267214244250    1.21975999729680   -2.44594935384847
N         4.24728718318888    0.31418140485172   -1.53629330513156
H         3.52442181895585   -1.89162902504249    0.00871542124760
H         1.80210636391760   -1.51441677090121   -0.25767632752630
H         2.54170606004763   -1.74772962582102    1.41541834319909
H         3.79992630572167    0.41080793586240    1.12978261252809
H         2.03970047998766    0.57190202724928    1.01811761246554
H         0.84038043669362    0.31164534498579   -1.09244550796804
H         1.84329512998534   -0.06410198340938   -2.54753200208563
H         0.95037768138021    2.71783278039272   -1.45800231577305
H         0.11852754306432    1.76211461504788   -2.74403694210715
H         3.23140655548617    3.79642519871870   -3.79287003108051
H         2.71544373547864    4.28804818448060   -1.27719344347967
H         4.51796334507417    3.74177052156555   -1.63319518199521
H         0.44092497115497    3.69020017117258    1.70885748208724
H         6.59760042645520    2.34534743700487    1.40998422716021
H         3.62896888393801    1.21111894626328   -4.17304763331660
H         5.75097727576629    3.19123799404384   -4.01048299596830
H         5.54465784900331    1.85373020558499   -5.00809047850592
H         5.38575048459800    1.99835038000758   -1.80356829817404
H         5.72202912646256    0.59040797922007   -2.87962113722080
H         3.93170539087308   -0.55091263333554   -2.02368788534461
