37
 energy: -49.761454102488 gnorm: 0.340756292218 xtb: 6.4.1 (79825abcba525fcdf90b791dcacef51065a7a4e7)
C         3.20250744216951   -1.49953516520577    0.00340960422767
C         3.35712461659274   -0.01493908825241    0.28644545908144
C         2.95271322182270    1.01123244550619   -0.85254183366102
C         1.22520454518310    1.19894578509415   -0.94503834989715
C         1.04335606037716    2.31239136742002   -1.96358209119398
O         1.78751165500098    2.25833796624965   -3.11708655886182
C         3.09496259090660    2.77374896168701   -3.15467788826558
C         3.61672671769630    3.46950001621101   -1.84233238630616
C         3.36783848149248    2.48389565905975   -0.61071446604110
C         2.21679335378507    3.05235680008701    0.20313002219665
C         1.60494825991457    3.49917701996085    1.26427694222457
C         4.62025294606977    2.45533357555015    0.25013058936281
C         5.12487204705510    2.25051679181527    1.43480182053379
C         4.20984756274968    1.84763853015277   -3.67702926503106
N         5.52399975440859    2.57896643557244   -4.04772179975729
C         4.61355353339413    0.76636168464079   -2.70363155972669
N         3.37795069433556    0.30983238913124   -2.08543589257126
H         2.23411755976368   -1.97328172263183    0.15065457638804
H         3.93522658362395   -1.80639219194774    0.76060404627166
H         3.61037375604414   -1.86817925991969   -0.94793807653258
H         4.44061618639566    0.14619065467951    0.28237897815794
H         3.07090140701390    0.35315494016887    1.27818871227663
H         0.69309143147902    1.39190350757138   -0.01697177422656
H         0.99157791163928    0.12321878344415   -1.20998194020511
H         1.15851421954776    3.35256411199011   -1.60523991371490
H        -0.01582371386073    2.23117361149323   -2.27415197481487
H         3.06885970999116    3.45840013416429   -4.00672355806626
H         3.04875606474498    4.40333468704409   -1.56015707075638
H         4.76836163647536    3.46077251747814   -1.92765032769377
H         0.71485549312830    3.95993000168234    1.62793037266755
H         5.48042354366071    1.90370894069859    2.38075216450374
H         3.87059348505945    1.56727980088009   -4.67710677376597
H         6.12371977652337    2.14496818767794   -4.74968125072042
H         5.07880310283450    3.48238449263205   -4.22633245538678
H         5.42795632533251    1.29163064695444   -2.16979919036571
H         5.13820368463063   -0.00537716472282   -3.28363241642048
H         2.78125212779138    0.48412604183011   -2.92156123167140
