37
 energy: -49.857198146567 gnorm: 0.318611094504 xtb: 6.4.1 (79825abcba525fcdf90b791dcacef51065a7a4e7)
C         2.66911622618913   -1.33962763795644    0.37479998626546
C         3.12825563337872    0.10122543875801    0.52031525545373
C         3.09290557406556    0.94948989786490   -0.81873904764213
C         1.45969805769361    0.77074601476470   -1.39211672758455
C         1.02636382836335    1.86433942230844   -2.35468422843760
O         1.85760469340034    2.10279531770418   -3.42212944308687
C         3.04565780789586    2.82516053280226   -3.21426447445157
C         3.33591019462509    3.41214960253008   -1.81935059098592
C         3.35315737212060    2.42831579197341   -0.56156778919805
C         2.24573939496992    2.84404903102734    0.39299341161071
C         1.57435957861151    3.45986499575549    1.32576099164990
C         4.58624784695346    2.72178227479983    0.27734655094306
C         5.51428765513370    2.55255489405406    1.17742459005483
C         4.26059342166244    1.92690656079799   -3.64209879573887
N         5.26612185326971    2.83100333101854   -4.39759270480675
C         4.87101350853710    1.09753953780667   -2.53793446074478
N         3.94271998682801    0.24764175286236   -1.80769878026393
H         3.33377009567791   -1.82324261580860   -0.33811489914151
H         1.62987587080178   -1.47072859662242    0.04742555151665
H         2.85251376405862   -1.77448629350956    1.36705957984960
H         4.17235341685427    0.06891966742668    0.85008709750978
H         2.51150518183377    0.64272285993615    1.24651842475430
H         0.81754868051737    0.78706083003979   -0.51515457248878
H         1.37630874327005   -0.23803213128222   -1.89944104818315
H         0.87765014719585    2.78757953498088   -1.76380201371829
H         0.06613552006876    1.60351581264694   -2.83929170999097
H         3.04002801469744    3.59229441850295   -3.99329227795066
H         2.65608839843582    4.27252317895983   -1.55128270114411
H         4.36579728872086    3.91106554895435   -1.97437881685517
H         0.74855991312402    3.91670758538634    1.82189806648985
H         6.29474850715275    2.82407602682248    1.85467766219924
H         3.84513985396291    1.28918085785733   -4.42603350644378
H         5.53999932946226    3.58171697595153   -3.76341149550420
H         6.07568828625509    2.26643815959698   -4.66617112629026
H         5.46376426616424    1.70654870870625   -1.82949197337570
H         5.57262446490358    0.33649441952243   -2.90643414918391
H         3.28770506747855   -0.24511387361660   -2.45087868304415
