37
 energy: -49.717677354078 gnorm: 0.332211154399 xtb: 6.4.1 (79825abcba525fcdf90b791dcacef51065a7a4e7)
C         2.16162662183594   -1.32641352848979    0.39470501781732
C         3.05189364032563   -0.10421152256144    0.24743601216989
C         2.82793934123627    0.98044699610063   -0.88712513773554
C         1.18156870774224    1.43108484822346   -1.22545541765341
C         0.96720400579416    1.66748977024468   -2.71153137893712
O         1.99198864872528    1.86797630989922   -3.60421466637274
C         3.02557777155481    2.67093197816650   -3.09094546803714
C         2.96174733635067    3.32091175558383   -1.73626658666631
C         3.48731035931917    2.36186205028624   -0.57254361289434
C         2.93404251127188    2.87453788977281    0.74709803592771
C         3.16071940026009    2.74073025754209    2.02410574592131
C         4.96908846953638    2.46500334898028   -0.24988658113883
C         6.01070732979937    3.21963320068783   -0.03634456540234
C         4.24960518944417    2.05556593876490   -3.54592462752348
N         5.37811889349924    3.09845242187033   -3.35074766796889
C         4.59469094704038    0.90007732347931   -2.63740765070723
N         3.38973361398924    0.30520149719692   -2.07928595350921
H         2.33363667533462   -2.13668104034325   -0.31082665748542
H         1.18140249957396   -0.91382962619553    0.12393354576399
H         1.90962532341302   -1.96432321151861    1.25312355533162
H         4.06104105202688   -0.47079860846371    0.03025240833042
H         3.02485634775414    0.46464820470917    1.18372614406196
H         1.13165287476659    2.39025175721188   -0.71634652645231
H         0.49384412311763    0.89660730875873   -0.50203732327475
H         0.38038450782925    2.60429831641240   -2.67075789453231
H         0.31829230344443    0.98917274231759   -3.29780041024576
H         2.97362255820229    3.53503642251732   -3.75880366892845
H         1.86729287022232    3.59159299785146   -1.79249686869631
H         3.48022604560484    4.35088848464022   -1.79908432123357
H         2.58936291786492    2.73195009905222    2.92425961510935
H         6.50288654250157    3.54945520136711    0.85275144526509
H         4.14599859624898    1.58268833693982   -4.52546626355026
H         5.40462125868826    3.79361795133160   -2.60455187202598
H         6.28253199532414    2.65758294552543   -3.53496779865856
H         5.19654872061880    1.05827098728597   -1.72259708424279
H         5.25908873603169    0.08552841421314   -2.95729087461525
H         2.73251575451767    0.11194483166000   -2.86430161141240
