37
 energy: -49.856544783148 gnorm: 0.333891761724 xtb: 6.4.1 (79825abcba525fcdf90b791dcacef51065a7a4e7)
C         2.57697256944203   -1.28678545737915    0.55284960740469
C         3.05810019817083    0.15424106708271    0.55265409232965
C         2.90024394816703    0.92253775795944   -0.82526834567268
C         1.21234814095526    1.01334735329860   -1.23859568895506
C         1.07278597842303    1.99309344326310   -2.39223397333888
O         2.03897664866310    2.07058029352928   -3.36574989663614
C         3.26258608265072    2.74723877857526   -3.21945293924143
C         3.44366048956649    3.36419036693836   -1.84617269803225
C         3.32347214837580    2.37109117330218   -0.60136235943023
C         2.31163469693636    3.02161482140781    0.32783074034152
C         1.46826362063450    3.73059946913467    1.02504052425382
C         4.65167391235739    2.46173536095273    0.13217407029827
C         5.59420914377419    2.66738893082509    1.00931160009539
C         4.39269861876116    1.77192805664458   -3.61235208504880
N         5.58140466101363    2.66545962268785   -4.04574420424999
C         4.78601950202994    0.84475490212082   -2.48750105296092
N         3.61521704795889    0.20576109671846   -1.90594470430805
H         3.04871198274113   -1.75066730680438   -0.31096252645385
H         1.48329600594896   -1.35968909637415    0.49864045621656
H         2.93117564869958   -1.76263299425445    1.47774155167796
H         4.11903777619752    0.11859168708850    0.82297591795877
H         2.56712715723176    0.73385186646060    1.34257080571588
H         0.72042787199880    1.29971423112727   -0.31247848382928
H         0.93673477523712   -0.06010715375341   -1.47032351633255
H         0.88645857162234    3.00423439314915   -1.98418258773020
H         0.09845189014132    1.72170527263272   -2.84160388323537
H         3.33130949963895    3.56103501075680   -3.94638016822437
H         2.66911604651060    4.16786931666456   -1.67752567570297
H         4.43009448443297    3.96116431347574   -1.78145493481594
H         0.70510702117981    4.18366008244157    1.61591306633571
H         6.51853312044647    2.93078640702189    1.47596089053099
H         4.11317891839068    1.09578097875462   -4.42385885394161
H         6.43484411735199    2.12044417396821   -3.92178893038194
H         5.38660164245772    2.94901796815170   -5.00902633290049
H         5.37124079499399    1.37472261402782   -1.71239676870075
H         5.44641272848366    0.08232225751890   -2.92318083844864
H         2.97347758504388    0.03075014251534   -2.70786406872580
