37
 energy: -49.832280001489 gnorm: 0.311610506691 xtb: 6.4.1 (79825abcba525fcdf90b791dcacef51065a7a4e7)
C         2.83451469921815   -1.39720709414579    0.39051207901588
C         2.81489645404330    0.11643581754151    0.51912598553688
C         3.04638432126924    0.89520952788376   -0.84241487683200
C         1.68343875936052    0.74847414922527   -1.91429465234692
C         0.99817630242986    1.98793670955239   -2.46602757154297
O         1.78401832006187    2.74215516473519   -3.30320659681363
C         3.14052331082036    2.96728821841703   -3.01046290366459
C         3.52183367309960    3.41364106520235   -1.61080485240162
C         3.23562577500362    2.39047432839319   -0.41855534553846
C         1.99880057235479    2.87214515544581    0.32215544627338
C         1.45159223958749    3.36006723575102    1.40036259211810
C         4.39292461366775    2.57040587625215    0.55030793542650
C         5.60687334431658    2.57271542000917    1.02608035088453
C         4.07914792232212    1.88917277290685   -3.50264195949739
N         4.93598836583154    2.46175453025959   -4.65902599115511
C         4.98850817452429    1.19398305684983   -2.51805249692158
N         4.21835014048244    0.38204091402599   -1.58804937076912
H         1.78680068142142   -1.68278146158255    0.32240580741393
H         3.36433267397955   -1.88805946341609    1.21679221496747
H         3.26984176864268   -1.71905868762852   -0.56563524351803
H         3.56849026100928    0.55435555799913    1.18264387278439
H         1.85995022390950    0.61117638624984    0.72955670242207
H         0.96264634536525    0.24165556194837   -1.27768030110577
H         2.07568531628506    0.08469543995811   -2.74345419971210
H         0.44816821917812    2.50784961829105   -1.65929866336823
H         0.18394487075702    1.58167748949869   -3.09602153333005
H         3.33213662655188    3.81674349568115   -3.67161377971626
H         2.91385835841394    4.34564686022745   -1.42108933274762
H         4.63234283974307    3.69102664143725   -1.76392224447602
H         0.71131154078408    3.92648335442559    1.91801068144274
H         6.25525712414321    2.47694556692969    1.86984645271645
H         3.55228228502465    1.12271672750257   -4.07605899826336
H         5.82485411436160    2.80512360234765   -4.29463469559887
H         5.23529755458218    1.72573215179794   -5.30319295598741
H         5.74328155709460    1.88643848857866   -2.09977148569188
H         5.64850250852398    0.48232376628252   -3.03301672814299
H         4.75519855411296   -0.16907404322297   -0.88548327170450
