37
 energy: -49.854534411529 gnorm: 0.319707449821 xtb: 6.4.1 (79825abcba525fcdf90b791dcacef51065a7a4e7)
C         2.74637434128060   -1.40034436790041    0.26553295147366
C         3.04592592329070    0.06531234322102    0.53041128626042
C         2.89502529951052    0.90931939991914   -0.80328648149472
C         1.21054331244904    0.96358547423670   -1.23647669302667
C         1.02117125470026    1.97336448242473   -2.35663108743432
O         2.02054578008427    1.94966456830381   -3.29894247338052
C         3.18957703950623    2.71811812423563   -3.15989356512808
C         3.38946517459255    3.33275132860727   -1.78836869662809
C         3.25824789945164    2.35629795587066   -0.53156128100498
C         2.23977405097032    2.93171222310124    0.43900832292796
C         1.52562033911319    3.95831617579003    0.80793157423485
C         4.56619908303902    2.45193348279165    0.23689789310217
C         5.61507073271376    2.84855629894735    0.90217598361681
C         4.38555682736171    1.85384147404399   -3.54158071825610
N         5.56902221879201    2.80749798707045   -3.84024167279317
C         4.83495279584125    0.87756285454629   -2.48112584391801
N         3.70152598723376    0.22717374534871   -1.84109699116118
H         3.43876114417326   -1.86091424083603   -0.43615911357253
H         1.69488900555309   -1.54845734375696   -0.01163691207328
H         2.91747905892865   -1.91599693388917    1.22059389980546
H         4.08110165953424    0.20909157020061    0.85854546772306
H         2.38245611433226    0.52210661054200    1.27345800726634
H         0.58741992133910    1.26286829174307   -0.39752994156070
H         1.04617002669702   -0.08463736796884   -1.63166701164944
H         0.98772858427440    3.02493046406353   -2.01498736907642
H         0.04145024807233    1.74625592723026   -2.81867028910748
H         3.06242494154525    3.49224592031478   -3.92145046458272
H         2.78236608871772    4.26793675429399   -1.61196097909191
H         4.48155454998719    3.70815016988828   -1.79426909816626
H         0.79929745407601    4.32963136365846    1.49450451858544
H         6.54575426920410    2.74781232492762    1.41714528864706
H         4.01287316729343    1.29604671494214   -4.40403145074152
H         6.31452906504319    2.15766295033173   -4.09064059872415
H         5.24403087916966    3.36242951416597   -4.63566460437898
H         5.45967051080482    1.38598397092869   -1.72259296145214
H         5.47227646591455    0.09671190824025   -2.91853865314932
H         3.02780556333745   -0.07623565957585   -2.57565574490874
