37
 energy: -49.859806376868 gnorm: 0.324950441392 xtb: 6.4.1 (79825abcba525fcdf90b791dcacef51065a7a4e7)
C         2.87136034568879   -1.38018600987475    0.40336628670901
C         2.93793787366710    0.13227377491513    0.53014999854054
C         3.08457782401951    0.90284373152106   -0.84774234586349
C         1.52526072185591    0.80594592720156   -1.61404458484213
C         1.05350699885907    2.09006831195198   -2.27641865956100
O         1.82410454603464    2.43273718624208   -3.36086291305864
C         3.12450567901674    2.91000318905541   -3.12073043306783
C         3.37849114330265    3.41723388612538   -1.67673127142539
C         3.28664558494980    2.36805259767063   -0.47630342108792
C         2.26412003087680    2.87779695117435    0.52619244388546
C         1.22893164863214    3.38297478042240    1.13710643993589
C         4.54090338706620    2.37524404936022    0.38229870754004
C         5.66535805851745    2.72102256859191    0.94450433485356
C         4.15428161099918    1.85444364607795   -3.60733324439261
N         5.11283993676149    2.58581844750006   -4.57970471626125
C         4.94135010674325    1.16276941736490   -2.52024945539079
N         4.17609549874614    0.29223361773306   -1.64056083842415
H         3.77758429792088   -1.88691319425435    0.07797182478656
H         2.03832216494012   -1.69563946507605   -0.23766296781826
H         2.65678932167583   -1.78687258484556    1.40130471849849
H         3.74380214101628    0.38938222579650    1.22614665024837
H         2.04365398392748    0.54104717182532    1.01402214512192
H         0.77194706175025    0.53484560289282   -0.87871624938364
H         1.57038751017815   -0.03560648890600   -2.37016507516269
H         0.88288794040836    2.90813249346802   -1.55164973908095
H         0.09020017641709    1.82184669751166   -2.75076969202639
H         3.24526523909794    3.77341687350966   -3.78053673035225
H         2.57283901676075    4.19151285080481   -1.51648928830232
H         4.40176086053293    3.95011860170710   -1.62602362849521
H         0.50737955986334    3.88273531455288    1.74241975849282
H         6.64220320330841    2.72968472553934    1.37718564972987
H         3.55642455198839    1.16345308870130   -4.20645623374000
H         5.71539794013516    3.15739922146480   -3.98726490809851
H         5.70464815788727    1.85006638094498   -4.97302130205486
H         5.45780168845705    1.87840668089148   -1.85295831981303
H         5.64306296631909    0.48509643753005   -3.02581648521206
H         3.67749078961038   -0.45216569982813   -2.17234654655682
