37
 energy: -49.858900658493 gnorm: 0.312438234848 xtb: 6.4.1 (79825abcba525fcdf90b791dcacef51065a7a4e7)
C         2.45562848012411   -1.34541735607751    0.26335082431159
C         2.80761741895142    0.10842287458081    0.52885722347622
C         3.06224696544859    0.87673698952362   -0.83449374398218
C         1.59863933404100    0.74463834834297   -1.76641690659669
C         1.09819236683621    2.05147798084240   -2.35969955144571
O         1.84039969426264    2.63027528746117   -3.36039123065916
C         3.19048526624832    2.91847460090342   -3.09449716147435
C         3.43294569645839    3.42286992609328   -1.65159667496837
C         3.33024941149642    2.39690745191431   -0.43213020322060
C         2.21609422878540    2.88654453750999    0.47853418209372
C         1.48359198756907    3.53111430439172    1.34340746575425
C         4.50694905758539    2.47316154650894    0.52702321568748
C         5.67265406785406    2.83246976487847    0.98752911837046
C         4.13922884202526    1.80632945614965   -3.59298939111696
N         5.16980867026394    2.42898511620656   -4.56738899596660
C         4.93317995843514    1.11888395765923   -2.50823064781292
N         4.24146239372168    0.30265732693116   -1.52202572281797
H         3.25429385251398   -1.86090395933543   -0.26608569843496
H         1.49193058282379   -1.52297495102346   -0.23075610877731
H         2.38017901640121   -1.85485588025392    1.23396690533293
H         3.75193969866649    0.14264709279529    1.08294877455145
H         2.02613908387179    0.66378697064875    1.05973757932650
H         0.84926070937835    0.33279743455058   -1.09522143896349
H         1.80591515492110   -0.01810489202981   -2.57711079158770
H         1.02369664620702    2.71455628619247   -1.47742555501596
H         0.09345501945372    1.93121036650031   -2.80797439369023
H         3.38882335527913    3.74553605827359   -3.78155011427504
H         2.72857242349060    4.26528137744499   -1.38994422618355
H         4.51297652066202    3.83167980066957   -1.65671659906397
H         0.60590189559501    3.89098326458219    1.83018946704132
H         6.57518957840303    3.04630575558183    1.51782945140909
H         3.51552497502379    1.10149235398678   -4.14800967490568
H         6.00179319382460    2.65004350924082   -4.01993982544120
H         5.43896695344049    1.68414555334754   -5.21471723950404
H         5.46387577232196    1.87163501257978   -1.89515300901384
H         5.66912128923579    0.50409786467335   -3.04457759143769
H         4.01766641871321   -0.60378126069424   -1.98442975358134
