37
 energy: -49.855486401606 gnorm: 0.329327062492 xtb: 6.4.1 (79825abcba525fcdf90b791dcacef51065a7a4e7)
C         2.66073941345395   -1.30484726712857    0.54478924836616
C         2.73509340876110    0.21096539540510    0.61424954663091
C         2.99309844610117    0.96062727671941   -0.75881604190896
C         1.47872313544824    0.84611012618119   -1.60830493059222
C         1.12716017837904    2.11964211455084   -2.35982409269447
O         1.91737807742151    2.48352375737849   -3.42303042176842
C         3.24625271714292    2.85069045864784   -3.14776626234974
C         3.55494725512040    3.39544066947298   -1.80005886604384
C         3.38450019788511    2.41350540451506   -0.55226282250833
C         2.32739846044642    3.08629397117270    0.30813666944436
C         1.46417402489624    3.67655001766857    1.08690295074986
C         4.65469975286004    2.47075345832632    0.28064040040038
C         5.52351140790993    2.55932778422139    1.24881248292689
C         4.16528303716788    1.68720405563558   -3.60877286211670
N         5.30557783446336    2.35326497508203   -4.41830363375373
C         4.86856211444973    0.92261808484823   -2.51312325901559
N         4.08482536041845    0.26534250697229   -1.47821032957038
H         3.61883296079021   -1.62500063650916    0.14049427991605
H         1.83311284838283   -1.61633971776738   -0.10512514612626
H         2.45513305341220   -1.70420484889174    1.54756307874096
H         3.63236912401239    0.50686203960246    1.16857325977100
H         1.82976320786294    0.65917601992205    1.03905077448052
H         0.71765853964505    0.77985785794091   -0.83495123704297
H         1.47473266290217   -0.13362604077902   -2.17581370701824
H         0.93201257062166    2.93716521308175   -1.64065564865162
H         0.13649376288218    2.00885518094393   -2.84067550343263
H         3.45199253892547    3.70608748321412   -3.79690220180398
H         2.81159418354356    4.22949650465708   -1.63869641465656
H         4.60234623839526    3.88040367734692   -1.83726850371045
H         0.69784131401094    4.19175196792919    1.61991643963647
H         6.46459128662582    2.75424221187133    1.71560114457444
H         3.50444512869129    1.07450141089433   -4.22662243735980
H         5.91849643425112    1.66887398736921   -4.86181848228447
H         4.87260103542128    2.83741420677370   -5.20849134793315
H         5.54148145705148    1.57672517487358   -1.92706877178599
H         5.41809222801722    0.13849338994179   -3.05201540378220
H         3.67679231221779   -0.58935671283250   -1.91241225795494
