37
 energy: -49.855944975059 gnorm: 0.320368130558 xtb: 6.4.1 (79825abcba525fcdf90b791dcacef51065a7a4e7)
C         3.00817734548093   -1.47377211396163    0.35326922548642
C         2.99024837332887    0.03303010393912    0.54631560699981
C         3.02282029729684    0.91249102395848   -0.77253093659639
C         1.40743986135177    0.82369852910418   -1.41342099791162
C         1.01156544696361    1.88051844279125   -2.43159407097942
O         1.83626881920178    2.22056993653930   -3.47633863556682
C         3.05557159825149    2.83927385411525   -3.14923659132360
C         3.19204414214682    3.38272639972447   -1.69789954539127
C         3.29579137328720    2.37344974146552   -0.46467565327905
C         2.33988272125019    2.91062069225483    0.58797904338034
C         1.33557141015312    3.61971510101073    1.02223639347253
C         4.66395507520919    2.48612344016061    0.18789208739571
C         5.68587729650986    2.50907905393824    0.99732665767189
C         4.17647486371417    1.93471868318606   -3.64798529576959
N         5.22583360173427    2.84898597793695   -4.32784630800845
C         4.84713283182540    1.20691407738325   -2.50773989879261
N         4.06626538389213    0.33077972310622   -1.64754580554686
H         3.93060768653948   -1.88039450101741   -0.05621379864216
H         2.15511835706566   -1.77616209679480   -0.26740191020795
H         2.92988887259042   -1.92066150458060    1.35400725104347
H         3.88611283678327    0.32304586867218    1.10600394113932
H         2.11986194187792    0.31551263097602    1.14931038433723
H         0.73082488722323    0.90947938706938   -0.56694687644200
H         1.28566941847382   -0.22117451590563   -1.83220181271177
H         0.79865850477277    2.76711421062035   -1.80529666989365
H         0.07181478844330    1.53647153329363   -2.90425906266316
H         3.07811298492920    3.69549108048796   -3.82879112109111
H         2.27594507649480    4.02678691862660   -1.55574008921035
H         4.12697480157648    4.06021671873975   -1.72091765574651
H         0.71948185081803    4.23569533973541    1.63689426206704
H         6.61679333827937    2.62661179457399    1.50830214012517
H         3.71363999524512    1.39157370584856   -4.47540706717027
H         5.81993446097147    3.27977342497108   -3.61916302232556
H         5.80232785482611    2.26115633026872   -4.93478674343267
H         5.43949207056249    1.94757130116318   -1.93793835629317
H         5.60072930822296    0.55950626999602   -2.97698941465050
H         3.61222789503222   -0.39934527366582   -2.23601881854156
