37
 energy: -49.858339666894 gnorm: 0.329393384455 xtb: 6.4.1 (79825abcba525fcdf90b791dcacef51065a7a4e7)
C         2.48442568980534   -1.18914984754754    0.42467936333658
C         3.10395124524906    0.19360769432618    0.53518250416424
C         2.90386664651500    1.01033099161724   -0.80898930594616
C         1.23561175300027    0.98206595415164   -1.30316015626325
C         1.06541931968862    1.88988589641668   -2.51028847477587
O         2.12642194430077    1.80384209154528   -3.37869608091551
C         3.22473544061728    2.66968739156085   -3.23548668057333
C         3.43648010106960    3.38911271507582   -1.87283274651192
C         3.27301377416848    2.46759414627002   -0.57887512020946
C         2.30958984403848    3.01708917250682    0.46048303877569
C         1.44745646970397    3.48897046547395    1.31727337668809
C         4.57282587817882    2.63316999831038    0.19150477433257
C         5.65048578513944    2.61494994354604    0.92523051792992
C         4.43530325964327    1.85790659307783   -3.56820750429618
N         5.61755476382252    2.79072141613757   -3.93068140700159
C         4.81629984578279    0.90457603916925   -2.46111957805621
N         3.64707284615582    0.27991876304473   -1.86111060544237
H         2.81087214263060   -1.69548029419022   -0.48138798467727
H         1.38716057525786   -1.19786612341270    0.40692286795019
H         2.72415077287537   -1.79845398991681    1.30706032127655
H         4.18071255844246    0.14774258165922    0.73117938690395
H         2.59951977052484    0.74282101004633    1.33822997532421
H         0.53519428815346    1.26960075208906   -0.52314494339620
H         1.09523639966700   -0.11456460902026   -1.54741670210565
H         0.86015124053670    2.90078451330167   -2.11081524857086
H         0.26245317273541    1.44841012813708   -3.13097864189909
H         3.15587446253777    3.46147599367842   -3.98631248397496
H         2.72853274412972    4.26662042230929   -1.81759211418701
H         4.50994251068669    3.81281011895208   -1.91499045511202
H         0.87439728647488    3.95289401724163    2.08745541173388
H         6.49206092671707    2.86160990243629    1.53549667113155
H         4.13434307375438    1.26534999862377   -4.43547275707427
H         6.38975292849835    2.17818204024680   -4.19387556034472
H         5.33339597110415    3.25253019999800   -4.79800628175707
H         5.39471959806406    1.38377251197514   -1.64875406948533
H         5.42396942605010    0.10075966322097   -2.89913389468327
H         2.97686251669651    0.07329259806326   -2.63160186537106
