37
 energy: -49.857499793294 gnorm: 0.321611400989 xtb: 6.4.1 (79825abcba525fcdf90b791dcacef51065a7a4e7)
C         2.58971597457476   -1.29931088920529    0.47001730558305
C         2.76710527156179    0.20122587296954    0.62801648328007
C         2.98620909406881    0.95325656620745   -0.75050156058700
C         1.48706863649691    0.96872753515457   -1.63391350787715
C         1.06602761434587    2.21335742156774   -2.39803535189716
O         1.89873910157125    2.60144934591649   -3.41942563643084
C         3.24516650719662    2.84456627223411   -3.09613481756402
C         3.50415492773622    3.38003840117275   -1.73309823615955
C         3.35231726394303    2.40424189058934   -0.47810400231262
C         2.26949395063889    2.98201815951224    0.41859223241150
C         1.42252248438347    3.84957677712696    0.89819301766617
C         4.68154376222983    2.48856922827972    0.25432878677127
C         5.80171169517848    2.47094775706721    0.92137420283085
C         4.15071217035396    1.64626570596215   -3.47512927051367
N         5.27202532053374    2.13758391656861   -4.42408273541027
C         4.90739591663199    1.04122653009002   -2.31711436396240
N         4.10677330985299    0.23931688994018   -1.40429257033802
H         3.49941879847374   -1.80447029251091    0.15197549024523
H         1.78047467741409   -1.52986232678183   -0.23450846098878
H         2.27561341340477   -1.67109567342671    1.45512210384286
H         3.63278792606537    0.42927866953888    1.25929991866626
H         1.91166596830181    0.63876240006938    1.15504305340279
H         0.74025738859968    0.76520028011290   -0.87067420481139
H         1.45150066101030    0.09514705730380   -2.35332796408401
H         0.85570964553018    3.07719598553720   -1.73987188917185
H         0.12742099937797    1.94044502584222   -2.91711936937498
H         3.55217582703765    3.63036408267217   -3.79160407672004
H         2.81110224115194    4.23877161058724   -1.49536726167105
H         4.58550026410592    3.78047854080277   -1.67018346392040
H         0.51605803664818    4.30420091714963    1.22749741756336
H         6.80546616582771    2.65209825440325    1.23945604006607
H         3.56332280113057    0.84950928851797   -3.93773310746693
H         5.66309403878693    1.30931057843949   -4.87329781735261
H         4.79759618382462    2.73916443423674   -5.10178760163176
H         5.59449301575739    1.73065850197749   -1.79107489647979
H         5.60726252288923    0.33868185312389   -2.79025000716756
H         3.79351955610267   -0.60791477266598   -1.92352627010015
