37
 energy: -49.853413096770 gnorm: 0.335407060104 xtb: 6.4.1 (79825abcba525fcdf90b791dcacef51065a7a4e7)
C         2.84971896789169   -1.38093077907358    0.22572399723480
C         3.13322753777993    0.09363579474457    0.45663001221647
C         2.98579231296919    0.93400836849002   -0.87974771801063
C         1.31366214085505    0.79841161613752   -1.34199477273609
C         0.99343184303519    1.84903284248804   -2.39266545584031
O         1.86789734605303    2.09593363219008   -3.42301100963904
C         3.07779461268863    2.76340480666762   -3.16393498313210
C         3.23802832425634    3.40710103928824   -1.77902466628051
C         3.27938913650902    2.37488635495742   -0.56121261574557
C         2.29500845597883    2.88551303398494    0.47833101871630
C         1.31403174268006    3.51232843530162    1.06554710029669
C         4.56202455054696    2.59751420970532    0.22344985779400
C         5.71369953963834    2.70719103621560    0.82482500748245
C         4.34277525638247    1.96646654344575   -3.52548316591854
N         5.45397194096006    3.00270112125064   -3.82666296494160
C         4.83454523059804    0.95909007423914   -2.51405043862808
N         3.74094692145043    0.20290545200910   -1.92284251258805
H         1.83119383800699   -1.57351827131360   -0.10505155282588
H         3.08226525162845   -2.00819171137336    1.09569408115857
H         3.52192933671299   -1.62562060882214   -0.60828794246432
H         4.18118905795302    0.22956135929030    0.74513340097765
H         2.48478184707087    0.58162020897799    1.19308165180408
H         0.74302806429913    0.99838349176289   -0.43862739619169
H         1.13395001313088   -0.29414421761693   -1.57861766542502
H         0.83197634832663    2.78665470240351   -1.82837189092011
H         0.04261626238511    1.52380571475313   -2.85644214526172
H         3.17818714824399    3.62956472244352   -3.82355513966368
H         2.52967866697546    4.26829567838766   -1.60339631594163
H         4.31561260652663    3.81922088880455   -1.82989365061822
H         0.66396070837430    3.85662354685230    1.83734423593901
H         6.63539670147289    2.88933738330465    1.33356032511375
H         4.14374874421181    1.48255374819353   -4.48468399152281
H         5.73953831858116    3.38375785513539   -2.92443612847948
H         6.22953878984976    2.44404721855618   -4.19089900188274
H         5.45001598640276    1.49808878555272   -1.76919305171362
H         5.45360514416401    0.18844798598668   -2.99375370297061
H         3.03432378401574   -0.01945659581725   -2.65548969965690
