37
 energy: -49.853727725826 gnorm: 0.323092124404 xtb: 6.4.1 (79825abcba525fcdf90b791dcacef51065a7a4e7)
C         2.65785761318615   -1.44596507885589    0.29728154921535
C         2.89892520872217    0.03760673479254    0.51851076451356
C         2.92433728324722    0.94242135989438   -0.78323167035244
C         1.27946391563542    0.91009578297926   -1.35017504755651
C         1.08823816278550    2.03063181032626   -2.35918100003021
O         2.02114666447739    1.94584667377535   -3.36404670462449
C         3.18211388141497    2.72176976963374   -3.20098836352653
C         3.44280271209221    3.34186082590050   -1.85094381808732
C         3.26670178516148    2.45030682875977   -0.53779342585622
C         2.23695098629250    3.02698714237588    0.42004209321180
C         1.60661862043380    3.77401509018875    1.28298236216941
C         4.56750660057396    2.51329676191634    0.24601211794782
C         5.50670145007776    3.10862076990439    0.92684883797436
C         4.39224900764983    1.81330730436714   -3.57378179050258
N         5.61071433496194    2.67587008662892   -3.98679164048937
C         4.85571117880002    0.90098531374213   -2.46359594056094
N         3.73686726058955    0.24371532193877   -1.80520114940141
H         3.20041314333513   -1.83739968633758   -0.56080253271385
H         1.60701760036132   -1.67724065109340    0.08134434694973
H         2.97223919117575   -1.97171826853898    1.20945676004354
H         3.89638228590717    0.13232409174272    0.96127629349120
H         2.15436619237329    0.45263482443164    1.20724523857950
H         0.72101097923970    0.92995465527705   -0.41774780621173
H         1.09599941916760   -0.09386828643038   -1.84044233990892
H         0.93213574542247    3.03353792896702   -1.91936148151631
H         0.14901523667730    1.75414170027648   -2.87524813210155
H         3.14035925146067    3.56666745454516   -3.89367506377890
H         2.77575213041885    4.24928847669719   -1.77426697744980
H         4.49326897078126    3.81310549249952   -1.94076253631852
H         1.00629573091545    4.28234252459945    2.00271694592251
H         6.34541040140652    3.16215718272598    1.58655769643574
H         4.06502426179816    1.21667928024311   -4.42865507720908
H         6.36752667748789    2.08502624482183   -4.33161665074401
H         5.30049160540044    3.20564883716248   -4.80493731470943
H         5.53617099138599    1.37572247878966   -1.73165642361983
H         5.37139530706717    0.07053808393697   -2.96526007616359
H         3.02963769685261   -0.06525952618342   -2.50512537872340
