37
 energy: -49.848300064697 gnorm: 0.326486442401 xtb: 6.4.1 (79825abcba525fcdf90b791dcacef51065a7a4e7)
C         2.84639397950664   -1.42391634855340    0.27987835868407
C         2.82253808954677    0.08448560634227    0.45931000742084
C         2.96254159811510    0.97800247848445   -0.84295542745325
C         1.46164945695908    0.85774647149146   -1.71527383535971
C         1.06986735840923    2.16795069378465   -2.37869901759311
O         1.86957965454975    2.54936646423849   -3.42857716749404
C         3.21332718624338    2.82498961846373   -3.12057716746482
C         3.42162049431697    3.43164214412192   -1.74871821689429
C         3.26960463544837    2.46619261238604   -0.48576834220407
C         2.23490698810003    2.99153149723836    0.49597280892483
C         1.43977622987882    3.58314504106633    1.34320122835318
C         4.55932132425331    2.45434693909657    0.31853417052345
C         5.53369536911980    2.59154613840331    1.17399187730988
C         4.15829448266851    1.73456094811928   -3.54495513595586
N         5.10423524542786    2.39062851118712   -4.58130491736959
C         4.95536181326466    1.05584701484445   -2.45698809262965
N         4.07106798887652    0.31673860626146   -1.56870747874899
H         3.80508739631321   -1.82335937323951   -0.04454119913682
H         1.99694893363558   -1.77040149754276   -0.32242816939852
H         2.57619386361577   -1.82451407114929    1.26670619084135
H         3.67140842029165    0.41492426899376    1.06772003692402
H         1.89193649913996    0.43366577748632    0.92085687156929
H         0.64040619885167    0.66773107479754   -1.02887870322176
H         1.57323525907652    0.04784273448704   -2.49858069581836
H         0.95727734378140    2.91022838457174   -1.56630922521661
H         0.04864243551795    2.01117138392252   -2.77547562420849
H         3.50664217902918    3.68176670035482   -3.73320246791551
H         2.80773124613394    4.37893411203771   -1.74249918214719
H         4.48772472523751    3.87533576735957   -1.76198632473262
H         0.84655705199812    4.03354118233662    2.10611445924314
H         6.49331114592589    2.51887157336589    1.63807223410059
H         3.61588214967926    0.97574765946295   -4.11402509982386
H         5.56617491174427    3.10853988677578   -4.02275263120171
H         5.77922428446816    1.63357280079343   -4.71367734363451
H         5.54233118189316    1.75925425420402   -1.83664818193413
H         5.79667521966225    0.41877707361702   -2.76288557348393
H         3.63775437230344   -0.45372790024472   -2.12020880371465
