37
 energy: -49.526886258119 gnorm: 0.342020292686 xtb: 6.4.1 (79825abcba525fcdf90b791dcacef51065a7a4e7)
C         1.27542273217438    0.33764557442861    0.95560806650462
C         2.44282282804975   -0.14384891108254    0.11098900907732
C         2.88943385894101    0.78747854832252   -1.09193924893299
C         1.30708403153472    0.85171293848964   -1.81313346202394
C         1.21889906370126    1.57855517822263   -3.14511884237581
O         2.28313302534172    2.30815969770826   -3.61665377480241
C         3.07664627401585    2.96156522797408   -2.65754612290802
C         2.19620016367132    3.02241359194310   -0.96950503524779
C         3.60621944702878    2.38458107889435   -0.57547540601591
C         3.66849694541329    1.88635055426205    0.85919661409411
C         4.88536638804423    1.74233865088091    1.30475797170622
C         4.64816874524667    3.43063890975406   -0.93674625716287
C         5.19904473962998    4.57815471909501   -0.65429363796543
C         4.49395741284208    2.01050501568851   -3.10726474279767
N         5.85312574452856    2.11271803813452   -2.37142278489442
C         4.20989307300733    0.53152948926675   -3.21487543586895
N         3.76608249185267   -0.03962283142166   -1.95229219181538
H         1.23137560889114   -0.26988389869351    1.85719757204659
H         0.28917747239371    0.38116430748826    0.47622470753618
H         1.43665295242119    1.35255363295394    1.34455826444610
H         2.12066985582049   -1.04693415898390   -0.41871638907745
H         3.24516810677572   -0.46997386291514    0.78244726398365
H         0.50252729667786    1.19183633974543   -1.16607152766796
H         1.19793856440738   -0.25182113252428   -2.04174866517193
H         0.40768033228493    2.32325289816947   -3.04033654537882
H         1.00848405134099    0.75095483966039   -3.84918913050293
H         3.27801072910737    3.88752068421536   -3.20295354941343
H         1.31769049288600    3.08210626169642   -0.26316354336189
H         2.33268290531732    4.10330342417330   -0.58653252762841
H         5.53087630137652    1.54541378852784    2.13019111668592
H         4.96632381881903    5.62064601205470   -0.63047214968550
H         4.71152205896917    2.36295022441926   -4.11835196401134
H         5.61344769684017    1.94371962990348   -1.39430476424443
H         6.20815838582766    3.06937027308438   -2.30046973320078
H         5.12651464360194    0.14568315263803   -3.69970931279875
H         3.41296648545763    0.42838313509057   -3.96421412369232
H         4.58530668970083   -0.45162070242956   -1.45765848296427
