37
 energy: -49.854448079413 gnorm: 0.320719753935 xtb: 6.4.1 (79825abcba525fcdf90b791dcacef51065a7a4e7)
C         2.71001966945544   -1.28514789574659    0.41050108478638
C         2.76893894879471    0.22108514640928    0.59979402847158
C         2.97657806519471    0.97814990558718   -0.77774275626179
C         1.43215542609403    0.93930472586712   -1.57857226023449
C         1.13493420490844    2.15121983468245   -2.44643319568799
O         1.96949804123276    2.50277646437380   -3.47947386041905
C         3.30869303621183    2.82616410194083   -3.19935468358866
C         3.51611450943739    3.39310464687508   -1.74858032510993
C         3.29333668695693    2.43980455863715   -0.48690169032241
C         2.21027989129327    3.04092797135187    0.39402648461519
C         1.53708419561317    3.47437876032176    1.42308598205767
C         4.51978551243367    2.53606602969128    0.40582949667892
C         5.46910568998512    2.93563320028084    1.20531277468628
C         4.24620196363040    1.68804832055861   -3.59797321500032
N         5.32635306820236    2.16354012759309   -4.60118335053134
C         4.92628249873780    1.03855781014558   -2.41674768088118
N         4.02574076954805    0.28364097923303   -1.55859592946840
H         3.64395122944443   -1.70552481122021    0.04314439573029
H         1.85990324246221   -1.48701250985607   -0.25352808342813
H         2.51335188843190   -1.88139927295126    1.31223379866855
H         3.69568454954665    0.41804316929530    1.14959712116406
H         1.85940221971454    0.54607177275368    1.11757607791705
H         0.62207070628286    0.86758904040399   -0.85725109441283
H         1.52216988146801   -0.00158166415938   -2.20194637798374
H         1.00453207705099    2.97638790945784   -1.72136575776051
H         0.19907920278116    1.90343404152696   -2.98280003486031
H         3.49100838174463    3.65644864480362   -3.88695856987762
H         2.72562360176244    4.18543452356734   -1.60161687687032
H         4.56493994715780    3.87531475196734   -1.71607004171380
H         0.77131706002477    3.72894341782785    2.11993588766273
H         6.36080327946931    2.90904787753430    1.79326109137530
H         3.66200260083900    0.97341221280073   -4.18265749537580
H         5.83592475503789    1.32916510255198   -4.89259486102202
H         4.77894741934700    2.40743109194385   -5.43011655881474
H         5.52768561621264    1.81826858287770   -1.91226597668341
H         5.65396654227572    0.28492823407317   -2.74804516243744
H         3.62795464023228   -0.44829360974253   -2.18435226543156
