37
 energy: -49.855276390688 gnorm: 0.330754486307 xtb: 6.4.1 (79825abcba525fcdf90b791dcacef51065a7a4e7)
C         2.65059095818339   -1.34433458167524    0.46589595229830
C         2.83466529006218    0.16032313209826    0.56670806571554
C         3.00126002420191    0.96156419737775   -0.79127853060402
C         1.51231619996812    0.86521992930439   -1.68673495133819
C         1.09538822568724    2.11183275380988   -2.44987898698071
O         1.92644464932991    2.58951990943361   -3.43396337267116
C         3.23862723511440    2.94324560625651   -3.07404040170308
C         3.36001085412601    3.41704100622260   -1.65908892705703
C         3.30139668913340    2.38603293695741   -0.44096299900725
C         2.26921283539061    2.98772379312580    0.49869677651702
C         1.16297200724428    3.33574420008931    1.09464019407617
C         4.61826795140155    2.45960064061460    0.31458305176070
C         5.82473625749248    2.43794756400615    0.80854831176625
C         4.16953763800065    1.83008583101268   -3.53005281073547
N         5.14191714910751    2.49896652679304   -4.53321089626126
C         4.92746066617603    1.11821186038931   -2.43532482930976
N         4.12652085273442    0.32606724257803   -1.51429194385433
H         3.27404398198843   -1.72895601667094   -0.33863405069621
H         1.63818299719266   -1.64121961555728    0.16378439121162
H         3.01117901472948   -1.81365029891820    1.39165770312452
H         3.73060621128230    0.35166714945196    1.16721672080931
H         1.97497393077855    0.56576386845408    1.11216218460443
H         0.64671781376755    0.54964704618002   -1.10981398054464
H         1.80911242452050    0.04530458745873   -2.40896477993689
H         0.76856110095345    2.91542912337815   -1.76355052212874
H         0.19622199655376    1.73423111059523   -2.97316558347267
H         3.43533798853779    3.82902670366842   -3.68404625310788
H         2.52496324119930    4.15926831269113   -1.49767369915500
H         4.31173976831277    4.05524188687775   -1.51580592362836
H         0.50602148193326    3.57566378711528    1.89941152379308
H         6.78994456969547    2.49603309887306    1.26298595162034
H         3.55560651590210    1.19755412399211   -4.17568551336296
H         5.75617296973931    3.12126673840000   -4.00766557152940
H         5.70845910231592    1.73012904024697   -4.89952380243686
H         5.56002731145004    1.83378421485896   -1.87679816598172
H         5.62440542607927    0.36126826175874   -2.82073891401626
H         3.81260912394743   -0.52835055046043   -2.02120682902825
