37
 energy: -49.850579423705 gnorm: 0.330259069962 xtb: 6.4.1 (79825abcba525fcdf90b791dcacef51065a7a4e7)
C         2.77880249093724   -1.39800999126242    0.36037392693974
C         3.24078139697618    0.04083659156152    0.51637802625291
C         3.12406071316085    0.85190690354342   -0.84097597215470
C         1.45028774299554    0.67337634575823   -1.28221175443596
C         1.03310381309997    1.81566038763482   -2.19402644257796
O         1.89320916022294    2.00044913829105   -3.24917277632669
C         3.03214027323626    2.81941710525385   -3.15634529670964
C         3.31461925668425    3.38153915294004   -1.75841498366158
C         3.34430908757764    2.32394272923425   -0.56223258345199
C         2.30788553584329    2.85107580861870    0.41672235734024
C         1.39855105500818    3.56052869673047    1.02485303304810
C         4.65199982486329    2.52878948986124    0.18502556638055
C         5.51996553804115    2.65366083371377    1.14994987458791
C         4.21753244662816    2.03389074593875   -3.66300753970535
N         5.10740844261463    3.06481654173100   -4.40095208957616
C         4.83631004409429    1.14464659230825   -2.61134203199307
N         3.96126228994691    0.23078594803288   -1.89269788694654
H         3.53040956230084   -2.07828301898967   -0.03486178108495
H         1.83892904462353   -1.46384221543943   -0.20237470375739
H         2.58609742103602   -1.78592625954343    1.37017664683980
H         4.28558549617406    0.13614813584679    0.83139138467848
H         2.70430545159893    0.60208773437211    1.28978757783812
H         0.97388970264784    0.69800019217731   -0.30541945783919
H         1.31248113629861   -0.27392612474592   -1.88685417816610
H         0.92188005653093    2.75838959127510   -1.62611731170153
H         0.07511050697640    1.60369732873158   -2.70611262452510
H         2.95136058502722    3.64098038263451   -3.87322662233124
H         2.56194169344175    4.19499699231587   -1.54388388321029
H         4.30293167443872    3.97062981892597   -1.85755658633630
H         0.63473844299186    3.84043484712468    1.71408819351335
H         6.34005069409542    2.89087115500131    1.79237201667952
H         3.89174949590909    1.35946173761998   -4.45853274454395
H         5.48413220539304    3.76901177816115   -3.76616556606218
H         5.88096993516842    2.58169390740539   -4.86405159090232
H         5.33957616685312    1.80747446290622   -1.88228866460928
H         5.65756650253220    0.53364557377415   -3.01066046554586
H         3.34115726325882   -0.10005066117209   -2.66182072060662
