37
 energy: -49.856534160878 gnorm: 0.323638666629 xtb: 6.4.1 (79825abcba525fcdf90b791dcacef51065a7a4e7)
C         2.70159055155850   -1.38820326847053    0.34728713065887
C         2.88121279036027    0.11134003581122    0.51205061991975
C         2.94619566370826    0.92997423787345   -0.84422513201617
C         1.41178813283880    0.66978932689719   -1.62266939618364
C         1.00476183191792    1.88346143046558   -2.44217589671744
O         1.87964578716274    2.22902592199463   -3.44338772400256
C         3.13354954585834    2.81776991260726   -3.20339724610997
C         3.24469136374439    3.45199205949906   -1.78548349100915
C         3.22815507640603    2.41392532034430   -0.57206353337780
C         2.30891825829587    2.91696146006802    0.52900606017230
C         1.80378383636136    3.54804988376968    1.55204180920489
C         4.51342661966589    2.59335029500795    0.21932503446361
C         5.60440409581383    2.94261776026674    0.84207426317714
C         4.27549216838204    1.80945169198601   -3.55774332485846
N         5.20078933056498    2.67778377045067   -4.44604170180052
C         4.94286086389327    1.15363861186620   -2.37276676470269
N         4.06479531887518    0.30239873136485   -1.58429303604344
H         3.43692012422834   -1.82191179185605   -0.32731140414519
H         1.67410125503737   -1.63338472317292    0.04974083515612
H         2.79577113501680   -1.78916085124620    1.36595235671829
H         3.88622788760233    0.24656091860554    0.92628881143387
H         2.06895078886567    0.49539459547070    1.13950910926932
H         0.66189498333788    0.45660775365416   -0.86510850857690
H         1.50162225630521   -0.25711251941130   -2.26667862712725
H         0.76905499086689    2.75829459348125   -1.80755862761000
H         0.08601528974068    1.60645259468453   -2.99361280765189
H         3.14243599673015    3.63933040221926   -3.92476386904721
H         2.40667146499709    4.18557307970885   -1.60152070011603
H         4.25115484912200    4.01775595365989   -1.76180260201638
H         1.18396674040899    3.73189381612887    2.39988052796100
H         6.58790620464568    2.98755325664453    1.25706713223248
H         3.83327599885877    1.10154059865005   -4.26283630672982
H         5.59417820215187    3.32817221600859   -3.76559646485304
H         5.96798273432007    2.11793952467050   -4.82585048577336
H         5.45408155114713    1.92812258587092   -1.77030151945835
H         5.78430066198595    0.53388470205554   -2.71206572427518
H         3.64229766066352   -0.47789557078900   -2.13034209075049
