37
 energy: -49.846425656308 gnorm: 0.331726786890 xtb: 6.4.1 (79825abcba525fcdf90b791dcacef51065a7a4e7)
C         2.66241180796678   -1.40550365631603    0.40215975554082
C         3.04410088259772    0.06132790661669    0.50588966374246
C         2.94001331482465    0.94869268837244   -0.80392641814922
C         1.30211119417121    0.79590190825105   -1.37138544927473
C         1.07790191167541    1.84094352384979   -2.45207018987070
O         2.02388365272242    2.09509286804287   -3.41528799110643
C         3.19185383428342    2.83383708414218   -3.15723336462365
C         3.26625165503457    3.44675289748152   -1.73169221932381
C         3.21171958545686    2.41536788250543   -0.51369583281919
C         2.08834330507874    2.80584562383891    0.43284980223676
C         1.37010315468353    3.35137305529059    1.37442635326544
C         4.50270921425444    2.55847188513984    0.27578436003115
C         5.73312697838713    2.62185811841103    0.70250504453233
C         4.42446429610935    2.01385583820058   -3.53914974022581
N         5.45486294033505    2.82126407303720   -4.36717149095399
C         4.94712157362434    1.10296932600519   -2.45436572844005
N         3.87639727517957    0.37084901139757   -1.79493523315417
H         1.65185844317161   -1.41766280065175   -0.00099021531502
H         2.61056333823235   -1.96370119633095    1.34561576442214
H         3.29539016494987   -1.90415504206206   -0.34483489194574
H         4.05723216689450    0.22726128054406    0.88794257680066
H         2.45646451596286    0.55994174293541    1.28501697209474
H         0.59320739503762    0.99833794829376   -0.57253648317457
H         1.22349199402331   -0.24306024932006   -1.81449011927718
H         0.84391989819185    2.79829958994035   -1.94972405774165
H         0.13562871831926    1.58230351933701   -2.97181854035060
H         3.13557828912741    3.63402882748982   -3.90015775424424
H         2.39054899057229    4.15052010271628   -1.62161350057010
H         4.23750165454161    4.06862703977411   -1.67199054655721
H         0.76827183936067    3.75824099236332    2.15484917627883
H         6.60825790157694    2.93581778570001    1.22889822962563
H         4.11472200190586    1.34252166590481   -4.34364928036346
H         5.80023047255937    3.65367479819071   -3.88907180759230
H         6.23913227233812    2.20312921147157   -4.58874973558434
H         5.50517567071797    1.62233541124029   -1.65251107633466
H         5.72246034343829    0.41890920884503   -2.82605265948985
H         3.24870482388068   -0.08764343884471   -2.48870745732845
