37
 energy: -49.851253269457 gnorm: 0.327903376272 xtb: 6.4.1 (79825abcba525fcdf90b791dcacef51065a7a4e7)
C         2.66324129483513   -1.30066816560912    0.56279153887296
C         2.76906853669606    0.21474775827252    0.58167142394659
C         2.98358518569796    0.94844633304698   -0.80740656330901
C         1.44940172768873    0.89683656248099   -1.62697698738796
C         1.03061180699574    2.15935790605090   -2.36244700618080
O         1.87112435670649    2.41236386064436   -3.41922915821597
C         3.20756180852173    2.78297675950196   -3.18885865519337
C         3.59413856633463    3.31119559354825   -1.81508552820886
C         3.31585142866659    2.41659145974241   -0.52184011411010
C         2.33300641898896    3.03896424313982    0.45645619339768
C         1.47390059386318    3.72587821769178    1.15654321394191
C         4.59280021839302    2.48987646740424    0.29940472489156
C         5.59493401288853    2.69836867745025    1.10705261758736
C         4.18461332500604    1.68980101880040   -3.62377167558547
N         5.30769180002554    2.44102646345779   -4.38113850455996
C         4.84825076384779    0.98566253021501   -2.46471362755191
N         4.02206590671194    0.20468389595063   -1.55653401365391
H         3.61641125591151   -1.71166480655388    0.23653300133905
H         1.88611719042759   -1.63211229229276   -0.13764041029479
H         2.40342658118180   -1.68072695907663    1.56047256823909
H         3.64071807775999    0.47492310969747    1.19197395240226
H         1.84378190123995    0.63676218872556    0.98998512993864
H         0.71583766168447    0.65835152712772   -0.86101793735367
H         1.65997186988710    0.02384519784975   -2.31655032253379
H         0.81103279328083    3.03604902518343   -1.72461662534664
H         0.06607694960836    1.94336186108771   -2.86037269150760
H         3.39762602971344    3.65914799340301   -3.81464613709289
H         3.17415754299847    4.35131385492803   -1.68847311582201
H         4.71269710393271    3.46746266802651   -2.05597077567804
H         0.87157621890632    4.24192292649697    1.86907776350669
H         6.40657207519932    2.67590949657672    1.80149760751914
H         3.72108938747736    1.02025022383827   -4.35226097687112
H         6.09684343090622    1.82314895447027   -4.57148750577200
H         4.91597324548827    2.57300562192468   -5.31676881961997
H         5.36467731777165    1.63288426124985   -1.73085803266047
H         5.60726002956962    0.29478360744921   -2.85692642081541
H         3.50582293537317   -0.50741591511007   -2.11504998746801
