37
 energy: -49.856109686580 gnorm: 0.324210203113 xtb: 6.4.1 (79825abcba525fcdf90b791dcacef51065a7a4e7)
C         2.63959334762638   -1.35011938732666    0.46349081027339
C         3.02809431466401    0.11533422872325    0.56123524948354
C         2.96970450610720    0.95031595114326   -0.78533996176460
C         1.35917877173829    0.83157576330537   -1.43355733124071
C         1.02755139123476    1.96926258377665   -2.38537310558735
O         1.91576990944849    2.05786121724196   -3.42963362013070
C         3.06963268736872    2.82009879304399   -3.17648520544060
C         3.21979693559405    3.39273050658860   -1.80030201076634
C         3.33163847475769    2.42428642268752   -0.53544962831389
C         2.39980760926111    3.00896029614174    0.51347533648112
C         1.26301587771158    3.37712586362486    1.03519766776945
C         4.74038100044849    2.46475803165289    0.03395222577463
C         5.87230289468705    2.50672776870026    0.67972901922768
C         4.33298008253642    1.98150166882404   -3.55615685038589
N         5.42051250045281    3.02381133998507   -3.91686896936129
C         4.85314039673766    0.98753951227283   -2.54565514382994
N         3.84697110250948    0.27754043964891   -1.77052681593993
H         3.36590035840320   -1.82982005264326   -0.18939604415476
H         1.62836590954234   -1.41002831115112    0.04133919354495
H         2.57902795377497   -1.76731002719270    1.47818269028904
H         4.04560164661188    0.15438685710271    0.96507560635312
H         2.41189686788414    0.60107612495416    1.32630200252867
H         0.72163372243073    0.78139435728275   -0.55452220453761
H         1.35011264287890   -0.13018545083177   -2.03096695986577
H         0.91250685515798    2.89266499465930   -1.78727395103074
H         0.05668251850918    1.83566348870840   -2.89964607246110
H         3.12783521699163    3.65985588248972   -3.87421789642593
H         2.36250263232567    4.10412735960214   -1.61803364382284
H         4.17801881642101    4.03570900548099   -1.75549370408778
H         0.47806341775730    3.83399384917047    1.59369885111703
H         6.81016927658712    2.52792996615305    1.19107203651659
H         4.04848359284299    1.40916562291658   -4.44235240877063
H         6.02594300610625    3.10578257573383   -3.09986206961540
H         5.95019020777799    2.62240106081658   -4.69441467530984
H         5.44731191085991    1.47141563811277   -1.74755709500599
H         5.49927472785045    0.24064393986770   -3.02721205289329
H         3.25990191797849   -0.30018695314393   -2.40858157188139
