37
 energy: -49.854151149248 gnorm: 0.318081852999 xtb: 6.4.1 (79825abcba525fcdf90b791dcacef51065a7a4e7)
C         2.58055324168782   -1.24687502204487    0.49347715187829
C         2.87366636867848    0.23816256401266    0.62305083848178
C         2.92911776525128    0.94623662921700   -0.79449101511126
C         1.31404387902092    0.99973296289990   -1.44005481168488
C         1.06717129343375    2.05912272095749   -2.50166140365129
O         2.05625318600997    2.05836632215240   -3.45506494556322
C         3.23325299492370    2.76939703946935   -3.16249645630446
C         3.46543437439921    3.39447025366442   -1.76733241129163
C         3.37120859239623    2.39233023284017   -0.52754174786882
C         2.35042332974309    2.88678449110094    0.48434180307250
C         1.54550865008690    3.71609056526931    1.08799678357109
C         4.62573198007569    2.55917543612672    0.31432866692648
C         5.78920041463907    2.73669125139161    0.87545751332264
C         4.31234118557081    1.76793691066153   -3.54936103282703
N         5.49460153979945    2.57297951602972   -4.14384930160291
C         4.80020525355402    0.85216529744903   -2.45255101117686
N         3.73431035659294    0.15283744973714   -1.75104699379819
H         3.36754138347449   -1.63906998056065   -0.14740398067883
H         1.60606537256918   -1.46824093821085    0.03987763439766
H         2.58739643258601   -1.74170826773095    1.47450163575260
H         3.85721257225528    0.32259511864908    1.09785745308509
H         2.07851348396346    0.65990072615407    1.24822316051662
H         0.64824813236138    1.22812941116837   -0.61166136443095
H         1.17035277762889   -0.02397695702539   -1.90193786964427
H         0.80948807595307    3.01853594185063   -2.01508613988303
H         0.15426368289831    1.75289498082759   -3.04731334072375
H         3.25625063908055    3.68259347169142   -3.76329076081235
H         2.73265911490901    4.24180915432086   -1.62834330276829
H         4.51873498953549    3.86135222536702   -1.84605564437346
H         0.85982089674555    4.07713765197908    1.82030791832037
H         6.48484330358206    2.97161298272161    1.65160658849271
H         3.82438550170714    1.14057226557325   -4.29913581397354
H         6.23528995126629    1.93102780135829   -4.42677036486892
H         5.15733692113128    2.91061240340903   -5.04857170159470
H         5.47974899960482    1.37006782595496   -1.74960459999386
H         5.42992655381317    0.10204914987449   -2.95056353680892
H         3.12096932931836   -0.32145613917111   -2.44702933201769
