37
 energy: -49.857229683984 gnorm: 0.329752256683 xtb: 6.4.1 (79825abcba525fcdf90b791dcacef51065a7a4e7)
C         2.49024603968577   -1.24949143904991    0.47364440255937
C         2.99804751984651    0.17320038960111    0.63528256326433
C         2.84762794509290    0.93486103845259   -0.74714850320835
C         1.21363975023662    0.98247822952852   -1.34371644861786
C         1.05426458970635    1.88973401357603   -2.55274407019114
O         2.08022116268919    1.93360335022018   -3.46529569492381
C         3.22226830340057    2.71144190870038   -3.20609488973150
C         3.32158319472478    3.36337298025842   -1.83526172579904
C         3.29167563781104    2.40526427981515   -0.55800792804222
C         2.35692375092091    3.08202613470406    0.43124840498563
C         1.66706394473242    3.80971123848138    1.26467705651854
C         4.67552006055616    2.54637023812738    0.05475276694526
C         5.79899103579456    2.73052823358118    0.69031159179261
C         4.38803147725219    1.79631804468595   -3.55063497818292
N         5.64233152446234    2.66466865994602   -3.81886630359687
C         4.73308493992834    0.83731280327013   -2.43668332981665
N         3.59959989123998    0.19634791115501   -1.78731832619585
H         3.00571216337403   -1.78504800732233   -0.32094334237341
H         1.41988980294454   -1.31476314441161    0.24027960415461
H         2.67903841912916   -1.79011325250902    1.41140839235841
H         4.06434638589499    0.18293878514507    0.88597202074080
H         2.33277044611577    0.57398398957521    1.40842584942332
H         0.65265226156970    1.26762577369965   -0.45733699659486
H         0.99099481235668   -0.09380825787112   -1.61574902155227
H         0.90942087034860    2.90450415674249   -2.13694158118221
H         0.18266691000695    1.63349925448481   -3.18486194182420
H         3.26861672322534    3.57187530509228   -3.87908568175400
H         2.45365576843062    4.08149538581582   -1.76271549670158
H         4.29261533399235    3.98587789072229   -1.89185257349184
H         0.94453847942713    4.26659636907235    1.90187025486994
H         6.73686387169315    3.00412351807743    1.12280985235427
H         4.13156839429968    1.24330247797550   -4.45741490729929
H         6.48842144022785    2.09476792604662   -3.80834666301496
H         5.54236201824098    3.15013419092872   -4.71362623047709
H         5.34712111622360    1.41214089817117   -1.71788667958043
H         5.37148426265239    0.06250448950850   -2.88317857979210
H         3.02005737764818   -0.17455460506199   -2.56968322685327
