37
 energy: -49.856350995981 gnorm: 0.315869824817 xtb: 6.4.1 (79825abcba525fcdf90b791dcacef51065a7a4e7)
C         2.76907288373608   -1.45027913965241    0.34582646460047
C         2.80125716995290    0.05987264815957    0.50845188401864
C         3.00963610369116    0.91483498056404   -0.81044397092009
C         1.58651493821211    0.66378258420625   -1.77986491867978
C         1.04014453531131    1.99505575289624   -2.26920367903828
O         1.74972253804511    2.56088520842469   -3.30051253745597
C         3.10528373254476    2.87562616128223   -3.10080892545910
C         3.38881944493386    3.41007943516750   -1.71750614948271
C         3.26791419377112    2.38928607178781   -0.49537404943304
C         2.12387214433915    2.88855955978252    0.37197226411925
C         1.56601735549449    3.60091183375114    1.31079485831373
C         4.56704437189429    2.57418551066547    0.27175373452841
C         5.74270968935938    2.76575265829556    0.80198890829420
C         4.17981250200473    1.82624446947931   -3.57208333931920
N         5.07618570169126    2.58600238978072   -4.58130701759351
C         4.91222934252477    1.15909799680349   -2.43273160444954
N         4.18636281251974    0.32386177081561   -1.48785199103625
H         3.76196879435591   -1.78992394517568    0.05825914440971
H         2.09133328981878   -1.84368419528481   -0.42247263290108
H         2.51806076477625   -1.87444570541866    1.32786080662090
H         3.60030133083917    0.35531908499655    1.19705419601500
H         1.88594805568806    0.46365539382942    0.95582235624179
H         0.83532780781046    0.16242386034322   -1.17485091678485
H         1.75587100907319   -0.03227271917368   -2.65667198295184
H         0.92218501750504    2.66102986000670   -1.39387865529766
H         0.01160696835515    1.82088509913312   -2.63891549572708
H         3.20691325120798    3.75720663246861   -3.73947763892216
H         2.74978137929919    4.29745969793900   -1.43742153905350
H         4.45878472134182    3.82574222448647   -1.59094760050905
H         0.71358415693492    3.87837275074111    1.88800830523980
H         6.53389804846913    2.90779331107847    1.50580711846643
H         3.63908141015721    1.03297216868639   -4.09379045340196
H         5.65194266702686    3.19240739023061   -3.99689060167800
H         5.69935689408800    1.96743112424367   -5.10599098448307
H         5.42698017806540    1.89642099935086   -1.78812105838785
H         5.73026266122443    0.52626550510843   -2.80365498403079
H         3.88727508205852   -0.58679234926239   -1.89624964338511
