37
 energy: -49.850256137870 gnorm: 0.330215480097 xtb: 6.4.1 (79825abcba525fcdf90b791dcacef51065a7a4e7)
C         2.49648838557465   -1.31062219327750    0.37834743390323
C         3.00402560259224    0.10501907062172    0.59377041975841
C         3.06451605576135    0.90213100411756   -0.77547101861521
C         1.47313489088122    0.73562888755138   -1.45947479382313
C         0.97368554311391    1.85703100946266   -2.35572750324820
O         1.78194384743658    2.24054856413381   -3.39826991239634
C         3.03334999122767    2.84262972155539   -3.17924823486844
C         3.34500935912077    3.31433942667522   -1.81003512506538
C         3.34575570099149    2.34896487353334   -0.53791270942299
C         2.38443138818662    2.98737012400893    0.45137500309246
C         1.22176543825822    3.33431470115394    0.92873538589099
C         4.68476060522912    2.40112883675335    0.17955285393999
C         5.76703262836290    2.69914989899040    0.84280768339451
C         4.30227199369213    1.97928778911361   -3.57492490970994
N         5.32551980345212    3.01710006890980   -4.09948094589368
C         4.89945107474233    1.11279055277778   -2.49224263655455
N         4.05351731235855    0.25987491672989   -1.67112739259992
H         1.43938069430631   -1.39625115799164    0.13526955267145
H         2.69805348034422   -1.92751121344255    1.26333412733707
H         3.11094985560708   -1.82151459026535   -0.37580233161351
H         4.05048194160063    0.01917470874500    0.90600941196402
H         2.48428173234742    0.65712375393921    1.38498363233947
H         0.79808102456479    0.66552408625095   -0.61031508461248
H         1.48670813358958   -0.26278628376382   -1.99328000624475
H         0.74036260115307    2.74672592112191   -1.74120880925521
H         0.03867414758682    1.47469366607175   -2.80792615067455
H         2.95779381246773    3.70715999217066   -3.84429641871404
H         2.65147628966525    4.16071106568284   -1.53267669527711
H         4.36769164502253    3.84165100268975   -1.90843102975301
H         0.56646899184521    3.95127307602804    1.50035695686648
H         6.74096896234947    2.70958677381018    1.28195882222917
H         4.08323724977434    1.41159914702306   -4.48245053269671
H         5.73857775438732    3.53098270259017   -3.32097377003399
H         6.09941381731795    2.53934127207369   -4.56756277425508
H         5.51641720094567    1.66596632379343   -1.75910843714692
H         5.62669950608609    0.49529458003917   -3.03726380065955
H         3.54208165406239   -0.46216579422511   -2.22123994336637
