37
 energy: -49.854599772619 gnorm: 0.309917707852 xtb: 6.4.1 (79825abcba525fcdf90b791dcacef51065a7a4e7)
C         2.58345223586130   -1.40425918348125    0.40726555780131
C         2.90250032912740    0.07109470570250    0.57925536382364
C         3.00611814508812    0.88909549537095   -0.77499967208658
C         1.52779023120869    0.79024174695256   -1.68760728037548
C         1.12726973539871    2.08983717939569   -2.36650074299128
O         1.94448732898780    2.49721632238548   -3.39288250175250
C         3.26439955078028    2.85315431291727   -3.06481326251345
C         3.54769999209086    3.38940896424806   -1.64324879102311
C         3.30167219166198    2.42151273358044   -0.39709822680901
C         2.14462047479036    2.90615550920141    0.46124235442679
C         1.34730637974850    3.70809874368324    1.11025144867125
C         4.59314020663989    2.49894871362475    0.40072757152770
C         5.62194142853352    2.88485598224613    1.10263917888045
C         4.18682065256991    1.76156703612009   -3.60464440543721
N         5.24790749996117    2.45307401284618   -4.49636310929317
C         4.92197552015201    1.06059462162926   -2.48758298598742
N         4.12564068038133    0.29475882046248   -1.54066925970753
H         3.35036849097925   -2.05611066292637   -0.00604419680547
H         1.66536654754087   -1.49082242922508   -0.18771971223889
H         2.28721924770964   -1.82359378463570    1.37871824181790
H         3.81302871238952    0.14829327549447    1.18333462703816
H         2.10574533108444    0.47514890775185    1.21399412477691
H         0.80219178167509    0.36032945888859   -1.00177425992408
H         1.74895967862619    0.06008657784252   -2.52422104825059
H         0.92075607031731    2.88995879372030   -1.63111828143144
H         0.12781151242685    1.92271942155008   -2.81154757895757
H         3.45875482829718    3.76455991294187   -3.63663165163725
H         2.97535676009790    4.35786185079009   -1.54953116770316
H         4.66402147596935    3.68432821552607   -1.62163195155966
H         0.46834832707443    4.00320107579402    1.63670147886927
H         6.54929708377556    2.99983472534344    1.62062177634525
H         3.57173389403510    1.12776439634165   -4.24792650767598
H         5.73988475699706    1.74138623979372   -5.03694108437397
H         4.68352684769070    2.91008455536372   -5.21669765245153
H         5.49917723990858    1.86666134589174   -1.99643026065285
H         5.62653743703013    0.34757008392652   -2.93750313499315
H         3.80548247330521   -0.59150037208955   -1.98516493507051
