37
 energy: -49.853890391002 gnorm: 0.318618123772 xtb: 6.4.1 (79825abcba525fcdf90b791dcacef51065a7a4e7)
C         2.94969972350281   -1.45203675802180    0.27560558909550
C         2.97664914579975    0.04932913839046    0.50629033350216
C         3.12390653166741    0.89639429107851   -0.82587502240016
C         1.61652411416824    0.72055145016032   -1.67731831120288
C         1.08461289316502    2.02012177161132   -2.25908176985453
O         1.79734842762909    2.53706053902006   -3.31361685454133
C         3.10649802459028    2.99003574032735   -3.07397054877613
C         3.36949915459933    3.48130125877157   -1.68593385320962
C         3.29180171347561    2.42189621431072   -0.49351274992588
C         2.05129512313370    2.79875790828265    0.29990675407875
C         1.33462266959027    3.40300420921039    1.20616421856748
C         4.52334173147104    2.61661103982736    0.37585907628052
C         5.52117843160424    2.75709925920354    1.20327748066808
C         4.06451660137946    1.84584317624513   -3.53535706682855
N         4.89314879500816    2.40030483688184   -4.72076433775181
C         4.94516932996864    1.33802590991393   -2.41901768486478
N         4.30971524105963    0.36898970659625   -1.53898007542896
H         1.95178842528575   -1.79473928265827    0.00985407472519
H         3.33952795319519   -1.94178013485005    1.17703077976896
H         3.62343695025944   -1.79520816169393   -0.52165681769114
H         3.83047206249020    0.37193735823640    1.11196654700840
H         2.06861133834735    0.33888380375683    1.04721274548497
H         0.85330710006243    0.28864230908652   -1.03494855739188
H         1.74456197816986   -0.04410390598445   -2.50246895428226
H         1.03597463121971    2.81604063669011   -1.49241539126068
H         0.05313180640404    1.85303723619010   -2.62383003421942
H         3.24177117971884    3.76075726042122   -3.83758034688257
H         2.72305973174628    4.38960620006831   -1.50884920808009
H         4.44635164087483    3.89182366800998   -1.75994996276465
H         0.39702915289844    3.59514316009360    1.67606133788488
H         6.37877019665499    2.80929817330743    1.83835721901553
H         3.47738106366917    1.00834512953343   -3.91969838897061
H         5.60538038687122    3.00896261916881   -4.31699767430344
H         5.34686371125718    1.58134805247982   -5.13273347586005
H         5.46764776071634    2.11065949786919   -1.82387903122704
H         5.81735553974866    0.79144505352748   -2.80343960085121
H         3.99985087429046   -0.47665455014003   -2.06281488206475
