37
 energy: -49.856298810754 gnorm: 0.315891408737 xtb: 6.4.1 (79825abcba525fcdf90b791dcacef51065a7a4e7)
C         2.63608581253356   -1.39591199388989    0.28694698139170
C         2.80643316071390    0.08569189407362    0.57655529889820
C         3.05256280121512    0.93517048105803   -0.73937592124561
C         1.58276414363687    0.85359526259389   -1.66733902443766
C         1.07759719697296    2.12720192929061   -2.32536159506605
O         1.87403863558560    2.69194504925626   -3.29180254995619
C         3.25440430338921    2.87668858088306   -3.09957871511628
C         3.57714763709019    3.35275424996570   -1.66491825085475
C         3.29533044818339    2.41027837944210   -0.40691892009205
C         2.14024974348239    3.02445379798765    0.36701453473425
C         1.40237752663419    3.79560839516839    1.11594753737708
C         4.47831064380027    2.58228923843214    0.53190059924676
C         5.60475937845628    3.02576630171500    1.01612950781173
C         4.14729550922710    1.66100064928406   -3.55100454816176
N         5.19169077789877    2.15089666220429   -4.58468238126759
C         4.95698170252435    1.01833741217135   -2.45053489750862
N         4.15570395624796    0.28449270103902   -1.48268926438566
H         3.50352860805131   -1.76254116577556   -0.25805016876269
H         1.79804047968756   -1.61907134917098   -0.38555723449750
H         2.50253974921747   -2.07963229290596    1.13665740849344
H         3.63775584877698    0.22553602324094    1.27604048097406
H         1.91197111737279    0.48268464907465    1.06981590465913
H         0.84574932308381    0.52648323609504   -0.93830439312264
H         1.68903710689797    0.01357586222479   -2.41902949011785
H         0.85935936159341    2.76854697836442   -1.45090254428461
H         0.10522099662031    1.91930035352876   -2.81133816892086
H         3.54862946675188    3.68959215438017   -3.76892895618722
H         2.97948626737488    4.29640529779943   -1.50187117012002
H         4.70409687329172    3.59007473175914   -1.75025706700425
H         0.68111809932358    4.29404512528809    1.72269950180278
H         6.43363024390388    3.16459871837736    1.67583644507246
H         3.49478573079566    0.89978221541683   -3.98531648071064
H         5.87526591715385    1.41877145380725   -4.77828858755415
H         4.78135568020019    2.37338756884852   -5.49484111179033
H         5.67027077752887    1.74878156565250   -2.02414725354344
H         5.67532249822035    0.28888229806549   -2.84943509087333
H         3.73316359806736   -0.52526722179703   -1.98396917860578
