37
 energy: -49.662656723155 gnorm: 0.310403489720 xtb: 6.4.1 (79825abcba525fcdf90b791dcacef51065a7a4e7)
C         2.68471159657636   -1.45822637980100    0.67978399562252
C         3.17493168582939   -0.03353315262621    0.48491288392552
C         3.06518518617884    0.86770384485302   -0.81493180923610
C         1.39218815479969    0.86776719771903   -1.29363741857924
C         1.17568379701671    1.97079513136884   -2.31672907135001
O         1.94154322789043    3.10891699257954   -2.39021265719441
C         3.33618698868587    3.26473060517567   -2.47495019733715
C         4.31084966685115    3.06232081257993   -1.35745788338929
C         3.61067712484311    2.25318538510289   -0.17200340209232
C         2.35930212297602    2.95618970696396    0.32823787866007
C         1.51954555897898    3.80023624415291   -0.20320350061493
C         4.92755169633581    1.87727085446104    0.48749765338512
C         5.92949372479924    1.52807305248260    1.24526366126750
C         3.71514872271445    2.39358688079914   -3.67971672241922
N         4.60601942515435    3.28669397221874   -4.57858187259895
C         4.19987749271009    1.05160824192878   -3.18598342143888
N         3.56679824566258    0.32281769638000   -2.09723447690396
H         1.97509762167903   -1.90296105642856   -0.01487773568876
H         2.22367398706764   -1.47160095182023    1.67559895918296
H         3.60255634958817   -2.06227510694657    0.67838652988641
H         4.22440885378855   -0.07246771936516    0.79638533160389
H         2.90806300472688    0.75338827857565    1.19941088110703
H         0.82300774266584    0.99680601248858   -0.37654022627219
H         1.05973088607298   -0.07818820193770   -1.81957053071664
H         0.16369180985465    2.37172299930714   -2.11985622142962
H         1.24022152862055    1.51862290766814   -3.32483964664433
H         3.23045913162120    4.32344925198901   -2.72663821638110
H         5.07600750428303    3.73948562692745   -0.87762242470472
H         5.04900194530122    2.24823178253817   -1.71243475623702
H         0.85043294562931    4.57536938031260    0.09388103359370
H         5.81882569924432    1.13127793252429    2.23107341323513
H         2.96405775055650    2.21971405926889   -4.45397763663811
H         5.27550901809757    2.62479695803956   -4.97157256264564
H         4.12382663214299    3.58420245257115   -5.43019494506152
H         5.20742016182460    1.46039597561997   -2.98132090015648
H         4.19999495125533    0.40811062130459   -4.07657335236818
H         4.08649130863702   -0.57448093215752   -1.99570945072772
