37
 energy: -49.852905527609 gnorm: 0.328860201064 xtb: 6.4.1 (79825abcba525fcdf90b791dcacef51065a7a4e7)
C         2.59706522378594   -1.28065234658633    0.49589364671871
C         3.17324291484363    0.12440112589353    0.53931351957003
C         3.02108357981062    0.92344155428261   -0.82166060824926
C         1.37093400901959    0.76518408853013   -1.35084781507562
C         1.03795177293180    1.70900017191460   -2.49478632759602
O         2.04203836442711    1.84211425337287   -3.42287718212424
C         3.09011414390654    2.75239819421345   -3.20059389530154
C         3.09839067668032    3.35285846404083   -1.83486677675145
C         3.20902630061764    2.40185826107470   -0.55674221155888
C         2.19084313800511    2.85072294996998    0.47873808311903
C         1.46462835450933    3.35905088804218    1.43490244792475
C         4.53928865743519    2.67322656332922    0.12675857763235
C         5.82932137519474    2.65630942863647    0.31534736439146
C         4.41983316601755    2.04677699303734   -3.57696859068026
N         5.40085131181284    3.20087917910274   -3.90085280628123
C         4.88722659598773    1.05613107506987   -2.53783180137517
N         3.86058800760999    0.28050802088181   -1.85833099702753
H         3.05780472493491   -1.83902001045520   -0.31641202906696
H         1.50753229004603   -1.28770449036347    0.36455343295579
H         2.69725049084819   -1.83804948908949    1.43748121358604
H         4.25653818493038    0.06079863177728    0.68884409412754
H         2.74028035668122    0.64002372707627    1.40398014674523
H         0.72882767494180    0.94957660806301   -0.49330278894373
H         1.14641984076222   -0.28660226334583   -1.70483079535126
H         0.71374517577758    2.68572388081977   -2.08916244368906
H         0.13256369990161    1.36712124214309   -3.03172487646889
H         2.94309984881134    3.61092563013239   -3.86144777522377
H         2.20005304627490    3.99529655993727   -1.60136396228338
H         3.96409758260794    4.11153732834662   -1.74225875395803
H         0.93978278235132    3.67881992882709    2.30615854324477
H         6.77199743191580    2.77924083310530    0.80295821812983
H         4.20290382549289    1.50485781441068   -4.50061063976688
H         5.86775476216748    3.32136538200910   -3.00182561100119
H         6.17274743755442    2.94291783605741   -4.52044809939918
H         5.33092773159386    1.62425617243782   -1.69848707786742
H         5.68071043938503    0.44977829266151   -2.99604498331719
H         3.25457849764375   -0.13124190545303   -2.59910593678439
