37
 energy: -49.853696851429 gnorm: 0.323705602081 xtb: 6.4.1 (79825abcba525fcdf90b791dcacef51065a7a4e7)
C         2.49862724937448   -1.26430383061927    0.54913779144450
C         2.77085051241603    0.22962839907880    0.59498825852407
C         2.99834699099317    0.94742914061565   -0.80031675943237
C         1.55062146532419    0.88239967147254   -1.76361323552777
C         1.09693081116986    2.16421254723976   -2.44286416879360
O         1.86784576094099    2.66082540786789   -3.46576576847371
C         3.22308487803456    2.89751302607078   -3.17629131565972
C         3.56722054443446    3.41598215487924   -1.80471302007477
C         3.34906452211260    2.42770157457954   -0.56941812709385
C         2.23862627311466    3.00918543375699    0.29034886938644
C         1.68612403579176    3.70887538547655    1.24177455212737
C         4.54247905969700    2.66226169885753    0.34225910227686
C         5.56487235211950    2.71141640228554    1.14992982025263
C         4.10678803189555    1.60472883358257   -3.50020817939332
N         5.14927323609733    2.17366417670339   -4.49458568198376
C         4.89936099715675    0.90966261272115   -2.41930473174497
N         4.17088685205346    0.23403084553167   -1.35622129609053
H         3.36990033079883   -1.79697100254707    0.17357854403518
H         1.62983735218148   -1.53446781447327   -0.06453763941379
H         2.24143497138801   -1.70264243225226    1.52331806769284
H         3.72322121590620    0.42733282768513    1.09880996711276
H         1.89814033554412    0.68632762642758    1.07537808199964
H         0.75632899476546    0.69251461591968   -1.04616793867785
H         1.66973071559107    0.06475595177250   -2.53771712121213
H         0.94625716143325    2.89880029505579   -1.62965561735629
H         0.09324458868329    1.98305127340360   -2.87263891218937
H         3.53023498923437    3.61701613946757   -3.94008742115750
H         3.06676503412807    4.40447035362002   -1.58862014392605
H         4.69991663980545    3.62617401249489   -1.88494549706781
H         0.96532924910747    4.04309597418497    1.95279758682001
H         6.51866349396147    2.69392180562994    1.63106498598344
H         3.44253437208997    0.97154513149836   -4.09324683288991
H         6.00009941510732    1.61117260859285   -4.47305189940559
H         4.79294051774370    2.29729801221695   -5.44537886623601
H         5.60616676782595    1.63967023713666   -1.98152526721232
H         5.53537116818205    0.11848547642526   -2.83974429672315
H         3.82203817060059   -0.66734568152523   -1.74526884222052
