37
 energy: -49.855694606505 gnorm: 0.331900120898 xtb: 6.4.1 (79825abcba525fcdf90b791dcacef51065a7a4e7)
C         2.38025003301851   -1.16621573196235    0.51079837846386
C         2.97887519960841    0.22393896161137    0.64179118523726
C         2.94500352307340    0.94974854949531   -0.76743619091693
C         1.30990434622714    0.93087030373411   -1.36256006459759
C         1.07865930596907    1.93787846225601   -2.47733429700532
O         2.01786147473146    1.97659951841738   -3.47916354500647
C         3.22597156398314    2.66372383633214   -3.26745682320222
C         3.34362639673537    3.35300962871859   -1.91596179422457
C         3.31069768113180    2.41688635175682   -0.62258136374347
C         2.39959226961271    3.03081632706216    0.42783414685859
C         1.62536595363954    3.71377547404358    1.22418579950945
C         4.62972281151994    2.53493234500345    0.12350829514045
C         5.69584151374123    2.74548811133554    0.84398972690479
C         4.43295213046128    1.76528743303479   -3.54437690877621
N         5.53386495310049    2.77869035078969   -3.94469544022045
C         4.82025150144264    0.82955426731486   -2.42453591119018
N         3.72135006126485    0.15708763728420   -1.74814585158933
H         2.86266903525447   -1.72572171074767   -0.28802626617007
H         1.30534529028753   -1.10823242667905    0.29725744901103
H         2.49801336770308   -1.80512940557880    1.39693432907064
H         4.04176354649774    0.12625123075131    0.88808122048767
H         2.37389728774357    0.87128087210510    1.28671117783463
H         0.72513988834778    1.17020249417316   -0.47799505919465
H         1.05784533950954   -0.13049292767108   -1.66577523606785
H         0.90130211104553    2.91790018090672   -1.99594909496404
H         0.16159605758726    1.61196068968679   -3.00429195627084
H         3.27668440542473    3.47702291399582   -3.99641719920311
H         2.60550642309064    4.19852002887334   -1.79533085456686
H         4.34459054273340    3.92549854761458   -1.97877512279070
H         1.07718550232922    3.97466244806217    2.10067792142799
H         6.61212525110048    2.70278541951387    1.39181739484651
H         4.15301840171180    1.10461966483127   -4.36839424922179
H         6.40898950719451    2.27999625968589   -4.10664257115087
H         5.34040687932823    3.10972301622182   -4.89298725121850
H         5.39866630305865    1.33481976202412   -1.62811925766854
H         5.47819047781686    0.09817856382077   -2.91386760880074
H         3.06122170975422   -0.04000574258011   -2.52975815863867
