37
 energy: -49.851621925028 gnorm: 0.329205796193 xtb: 6.4.1 (79825abcba525fcdf90b791dcacef51065a7a4e7)
C         2.72739514431524   -1.43513689654081    0.27554206943490
C         2.99402528635972    0.04156946480211    0.51279292228858
C         3.01382184603961    0.88514792736585   -0.82953793095420
C         1.41638519983517    0.70495757398242   -1.49572538877639
C         1.01204711419392    1.76625327060942   -2.50588549777312
O         1.90710455469118    2.22214047781275   -3.44306259337520
C         3.07957317818740    2.90397009636604   -3.07304198557061
C         3.16285638040907    3.43512807114028   -1.65513133445941
C         3.24443280376665    2.37355539327580   -0.46489910635966
C         2.26394477778091    2.82434546214692    0.60553417449736
C         1.43186207732087    3.52441192633821    1.32496512713275
C         4.56812326445246    2.48498068092585    0.27391075879938
C         5.76825587097747    2.50614319603831    0.78309649063628
C         4.28378854550155    2.01175961499045   -3.54222100858250
N         5.26051260355487    2.89331029015771   -4.35961195842564
C         5.00417348540162    1.24842194912828   -2.45686283441912
N         4.03090763388996    0.39752787503810   -1.78900647766909
H         1.68496916006932   -1.54374972293713   -0.01677140642888
H         2.86441400240708   -1.94836633338432    1.23585627626880
H         3.46553001392229   -1.78290383981588   -0.46034574517918
H         3.98126681408136    0.25769379129774    0.93537753341315
H         2.27817837039217    0.54086521842998    1.17554367711417
H         0.70108300352595    0.65101780049809   -0.67895254027607
H         1.50978230850100   -0.28063722823321   -2.04512957324674
H         0.61056441433319    2.57601442995040   -1.86813291030990
H         0.10218202982133    1.42199406462011   -3.03365713201302
H         3.12703571436893    3.74289173683604   -3.77259055471757
H         2.31965489192522    4.14403681663836   -1.40871622084680
H         4.08488997766970    4.10203065933842   -1.45837438703893
H         0.75671443299877    3.75181786506465    2.11822705036289
H         6.73672283308727    2.62042260972693    1.21959000935228
H         3.86171634466602    1.29252020564159   -4.24819487431073
H         5.48774779750926    3.74394548018371   -3.84429691400310
H         6.07909904887397    2.30937547003168   -4.54723489965663
H         5.55720897281498    1.97948126444678   -1.83731427623244
H         5.72798402119267    0.54965791958750   -2.89852646866777
H         3.68228616886801   -0.29538568007033   -2.48461191077866
