37
 energy: -49.850687045012 gnorm: 0.323633510874 xtb: 6.4.1 (79825abcba525fcdf90b791dcacef51065a7a4e7)
C         2.48605092256259   -1.26610726817405    0.41783330124122
C         2.74227023526252    0.21929071387082    0.60753247351194
C         2.99526660516142    0.97206741220690   -0.76476076213481
C         1.46057136578473    0.97220192712706   -1.58499769999148
C         1.12862330904361    2.19338750547342   -2.42688697959575
O         1.91729851012870    2.58833027148209   -3.48010752362421
C         3.28383762245820    2.79201774049911   -3.22016171903763
C         3.59677692617834    3.36834638583278   -1.83794036008592
C         3.36610161438724    2.45855621081730   -0.54592071875685
C         2.27337670114216    3.00916906435053    0.35584062874881
C         1.59018743965250    3.66227512537590    1.25402793552907
C         4.65223021639199    2.64779422886567    0.24178112193924
C         5.56322139103538    2.66349601772310    1.17445726046205
C         4.12423720190063    1.55959168792344   -3.53386357981481
N         5.19725307189210    2.11987671643128   -4.50028329861906
C         4.95250839967796    1.01059041242606   -2.39711134550483
N         4.14251806581643    0.30146520693254   -1.41815457530974
H         3.37728789465639   -1.76156383916631    0.03820810103944
H         1.65132856426688   -1.36856940657432   -0.28723555557521
H         2.29667861077452   -1.70510356101878    1.40714426883201
H         3.65742934384657    0.28454557012842    1.20599627497769
H         1.90551866971396    0.65908441161690    1.16196907087916
H         0.68878073524042    0.84153034894082   -0.83071076640393
H         1.47755085264579    0.06386497999034   -2.26072011276584
H         0.91321322117451    2.97434378978201   -1.67367012367621
H         0.24838387097230    1.90066443726825   -3.03054541563884
H         3.60388469403532    3.58417576504673   -3.90241236790161
H         2.97318571569565    4.30242885735874   -1.72442957320261
H         4.69399202831088    3.72779358808609   -1.81480958798993
H         0.86511253499225    3.94867661675629    1.98138122060371
H         6.43599431141009    2.93996268490194    1.72522783114630
H         3.56158848720962    0.72765267194924   -3.96415797587042
H         5.63432305603054    1.35018824641714   -5.00754569913463
H         4.70269095655630    2.55815067939976   -5.28104591180263
H         5.43557854794518    1.78112851460472   -1.76699179045945
H         5.68544840390518    0.29882236433604   -2.80136970633725
H         3.86659497755766   -0.65922277753527   -1.71222613968234
