37
 energy: -49.856281823345 gnorm: 0.321130159577 xtb: 6.4.1 (79825abcba525fcdf90b791dcacef51065a7a4e7)
C         2.81896844336111   -1.44438677277259    0.24880763526701
C         3.23658174778768    0.00720895518878    0.41162731435794
C         2.97123878396334    0.89877461090299   -0.87234014583030
C         1.27787838344726    0.94385398054905   -1.27055683975889
C         1.04989780532581    1.90393283161084   -2.42664279880217
O         2.04602157268955    1.91921518561661   -3.37256339047447
C         3.11533403310715    2.80770871468622   -3.16366230664723
C         3.31627554124375    3.42000494978527   -1.73194340909859
C         3.25949864177066    2.35798668919685   -0.54066777626371
C         2.25335763890749    2.89795048210482    0.46258458758993
C         1.33738719628101    3.12132999718316    1.36321505176625
C         4.56136526365926    2.54788476575477    0.22057728623546
C         5.42829264022544    3.11544107907552    1.01200200802217
C         4.34786807476113    1.98322367969040   -3.66255100758333
N         5.44053636725894    2.97421603364858   -4.13505455284641
C         4.83601066598997    1.02217242686336   -2.60531947192698
N         3.76194773938236    0.28115382449090   -1.96144097650155
H         1.73570403302228   -1.54072188383769    0.21484279324702
H         3.15862479721668   -2.00160168083623    1.13114946565493
H         3.36342846423309   -1.92283912691725   -0.57700253584597
H         4.32185590214196    0.04606059791451    0.55516780278122
H         2.77141165806937    0.46242165670465    1.29331308812317
H         0.73042696874852    1.32976022957768   -0.41436881559370
H         0.95322112104805   -0.10382851566072   -1.55149124671444
H         0.83309360698919    2.92876318834289   -2.07118740673093
H         0.10032490619148    1.61798446570517   -2.91802514670240
H         2.96883518299332    3.61761288465445   -3.88338706943339
H         2.53813275703135    4.20984143687865   -1.52001676956621
H         4.32556316709969    3.97887967256368   -1.68079807342166
H         0.79549885895126    3.38190180078097    2.24370450220937
H         6.32438758356690    3.14582244195705    1.59304025884861
H         4.05495265810210    1.48825546982965   -4.59155929584195
H         5.79934271099274    3.50476010807476   -3.34098487852844
H         6.18407294632589    2.37302731310100   -4.49836088167016
H         5.26812266625632    1.61105049704530   -1.77427300723160
H         5.50315201492958    0.23582040697373   -2.98454572080975
H         3.12727814875393   -0.11795533102034   -2.68493211811578
