37
 energy: -49.854739476700 gnorm: 0.315901031042 xtb: 6.4.1 (79825abcba525fcdf90b791dcacef51065a7a4e7)
C         2.60554957984544   -1.42658241217132    0.18638857319641
C         2.80565696177458    0.04528769338881    0.50513095410339
C         3.03723706624258    0.88976396793521   -0.81664781807690
C         1.56358116390024    0.83592792312091   -1.74050824716441
C         1.13154274029598    2.16270257901441   -2.34322966018019
O         1.87318422141853    2.69847294055145   -3.36801251963875
C         3.24818203999794    2.84037203393668   -3.11162375587498
C         3.53588400231411    3.35337566962655   -1.63504163923301
C         3.35043720176294    2.35295959107181   -0.40417967977076
C         2.25129384937835    2.94978194494442    0.45958119454246
C         1.36786632842516    3.66090605702988    1.10292701947412
C         4.52275178530661    2.57993352700173    0.53633795809348
C         5.56596021049373    2.92827839408862    1.23662950290559
C         4.15741803954831    1.65876193597052   -3.54221699527691
N         5.11816471038293    2.14821346069019   -4.65426577241644
C         4.99824564043955    1.16235487314259   -2.39059631405658
N         4.24103301785720    0.32737437196255   -1.47041379792552
H         3.45748506737873   -1.84272057368477   -0.34740052600579
H         1.69958755144804   -1.64898954124945   -0.39166840509008
H         2.54125149422155   -2.00154749628125    1.12051742750989
H         3.71811304035398    0.16845350822564    1.09858474233551
H         1.91387880113946    0.42089711064005    1.01954411248588
H         0.82387636115878    0.59251619696445   -0.98204127126492
H         1.68988201102082    0.05354605176901   -2.54914400891967
H         0.99480802133597    2.87206276873092   -1.50552947871148
H         0.13129539940278    2.09391147171582   -2.81193512320156
H         3.53082391894354    3.67017787196215   -3.76503499791521
H         2.92363936940829    4.28951970620604   -1.48321403609602
H         4.61189820699802    3.75485009074511   -1.51408695997549
H         0.83409246633261    4.06805126287931    1.93125094986631
H         6.28841138426741    3.16107893874338    1.98854895270922
H         3.50434243332413    0.85451333396310   -3.88938526636778
H         5.45253264750464    1.32070369723609   -5.14842296288964
H         4.63222203861194    2.74081339237209   -5.33172503422024
H         5.46779498020202    2.05779314616425   -1.94131899938740
H         5.84644349286595    0.54566919637241   -2.71846641892945
H         3.94176946745293   -0.54597031506025   -1.95336661580478
