37
 energy: -49.851149910762 gnorm: 0.322059157654 xtb: 6.4.1 (79825abcba525fcdf90b791dcacef51065a7a4e7)
C         2.70453626061959   -1.36813790767321    0.34531652227275
C         2.78916668076378    0.13409940426616    0.55546415611579
C         3.03467247519578    0.83963125210629   -0.84304231949285
C         1.53871189046770    0.67456407461101   -1.71650261438073
C         1.00211968497682    1.88945728634742   -2.45566739839131
O         1.85044393747741    2.44036868799864   -3.38523959358612
C         3.13003262398555    2.95397898713337   -3.11074586695201
C         3.33428989656603    3.44829433851708   -1.69678096203622
C         3.32781557449977    2.32390547961561   -0.56278280562401
C         2.36283155069034    2.85253487588980    0.48590814666790
C         1.65847754526264    3.25915170628498    1.50501741072657
C         4.65712721005514    2.48376702502460    0.15679130145139
C         5.56761211191553    3.04736093179528    0.90071030535804
C         4.16923839784161    1.87686350302770   -3.53925131206077
N         5.18601747311507    2.62555569977918   -4.43639664584960
C         4.88114016204238    1.14932715443884   -2.42411546405025
N         4.14235275626604    0.20813021817137   -1.59608119393694
H         1.94115925667289   -1.45851133237668   -0.42473804774914
H         2.33062992122032   -1.93888548232035    1.20486480685208
H         3.62697431903106   -1.78464400250170   -0.08240594569147
H         3.54240531481478    0.43070511572577    1.29342751845715
H         1.87593803960411    0.51378982546043    1.02750255782614
H         0.79022770372100    0.31384492505382   -1.01554774098960
H         1.74031398459446   -0.14148369103297   -2.47504577842956
H         0.66867414788990    2.61981140266908   -1.69472929659360
H         0.13931519167119    1.59055673144086   -3.08107817151688
H         3.16637564348475    3.79240863914064   -3.81154920266783
H         2.61033676049423    4.24196222038150   -1.35001891068828
H         4.37750934829927    3.94327227312855   -1.67922154872150
H         0.90404186635628    3.74134098713257    2.08391516465977
H         6.46250169600476    3.31988695315408    1.41686611852637
H         3.68354012751579    1.23269064881351   -4.27612843467779
H         5.51815433395010    3.48917776133260   -4.00673666940567
H         5.95919774169718    1.96276317098518   -4.53212724043644
H         5.30363455011560    1.90263015550322   -1.73261747458786
H         5.69973529996505    0.56426853920663   -2.86553141687904
H         3.81384881261801   -0.64359131633761   -2.09826505064207
