37
 energy: -49.854411896806 gnorm: 0.331041778362 xtb: 6.4.1 (79825abcba525fcdf90b791dcacef51065a7a4e7)
C         2.56024359121475   -1.23668264779299    0.37034937974750
C         2.67532146638485    0.25830062586457    0.61493754730464
C         2.95399808369837    1.05540505910800   -0.72701346205869
C         1.57298571743371    0.86489811659003   -1.76845000857868
C         1.11727889063378    2.16529975215843   -2.40997020582998
O         1.89540044508570    2.52434983640140   -3.48368886529478
C         3.24269084848602    2.78312146048172   -3.17654823371119
C         3.43530488822667    3.37799412040708   -1.80310363951675
C         3.27783796646234    2.49853804361785   -0.47947030849176
C         2.34978489182692    3.17080468233323    0.51911412784469
C         1.46330005066031    3.67668009108793    1.33045266707100
C         4.60228972315715    2.47272714174148    0.26589761245570
C         5.70795751012835    2.67185622855001    0.92762462255194
C         4.17046167988325    1.55727681277221   -3.53470998302253
N         5.24189430335149    2.11087321598625   -4.50672469438672
C         4.94939111612609    0.98496826501939   -2.37480779766337
N         4.12443686538505    0.38440805659885   -1.33746639932106
H         3.47731575364670   -1.66293267194641   -0.03112965170307
H         1.74460187380287   -1.52963139967826   -0.30291996886293
H         2.46922512604752   -1.69632652941567    1.36421000849748
H         3.57705310646970    0.43845586483421    1.21021685261402
H         1.79930275825328    0.62022584440300    1.16500388782572
H         0.73988503274866    0.46756937137039   -1.19420464744780
H         1.85575298896725    0.12991447447537   -2.58196510250930
H         1.00455500254693    2.93360959724416   -1.62217380866730
H         0.11291844809989    1.98313149615629   -2.83773953463265
H         3.46942265738342    3.52326713449918   -3.94868000994269
H         2.85578947413034    4.32668411819039   -1.60711910726184
H         4.48320129755487    3.86330366881374   -1.80556585036395
H         0.89346449364362    4.24245755664170    2.03186948451748
H         6.47788965011537    2.63844170787789    1.66762636409007
H         3.56848300031852    0.81135672118870   -4.05918520275579
H         5.88230872537589    1.36122932621753   -4.76877251730060
H         4.80302997763261    2.43422734110288   -5.37223392257532
H         5.52389630634057    1.76232741075486   -1.83648360737947
H         5.65470397596114    0.20430310050580   -2.69156527153342
H         3.68595692177758   -0.52169472333167   -1.60625280270583
