37
 energy: -49.841692583508 gnorm: 0.325976044000 xtb: 6.4.1 (79825abcba525fcdf90b791dcacef51065a7a4e7)
C         2.87813743249511   -1.47667168751401    0.39033486274972
C         2.82415720607877    0.03295310948258    0.55207658543592
C         3.00604105878434    0.88192989062789   -0.77458287915277
C         1.51808749821900    0.78073803455495   -1.67114996578824
C         0.98789966528879    2.02970904173143   -2.35615622416128
O         1.80713410409795    2.53953136721080   -3.33400999990048
C         3.14691270468300    2.90353360737337   -3.11268394496039
C         3.34871830864676    3.37928773243357   -1.67482285702767
C         3.24202142865422    2.32469458109618   -0.48038026348482
C         2.11132276541267    2.78788426989258    0.42370588794215
C         1.39885445763423    3.71065040072411    1.00759555428808
C         4.53173409814977    2.40992897013705    0.31948742112709
C         5.68825534772786    2.60640181637284    0.88860371755813
C         4.19952976976862    1.88886166372027   -3.62629406753389
N         5.23428765954962    2.77919406540961   -4.35830073920251
C         4.89020862767121    1.16783464028161   -2.49372002288196
N         4.13604974844963    0.34078099265500   -1.56392117093934
H         2.00597371077276   -1.77679910065161   -0.18685646189550
H         2.64930865923174   -1.97491769525885    1.34100320998733
H         3.85030947993039   -1.91066572781856    0.11858775347489
H         3.60611030575548    0.37696466198029    1.23774320541277
H         1.81490864260382    0.20285091218650    0.94389758214724
H         0.76332361138953    0.22282488858434   -1.12274408150425
H         1.80991734012645    0.02466278940500   -2.46181466021480
H         0.75534941771938    2.73257563264313   -1.53425063712326
H         0.02308578248195    1.74896249592348   -2.82008220871608
H         3.37210716315921    3.73226135518797   -3.78937308160885
H         2.53250515576083    4.12162394805639   -1.43608911217654
H         4.35270284448073    3.94983671131986   -1.68517770873257
H         0.89625014771077    4.04875312408290    1.88502234333114
H         6.59304818383328    2.93377969586932    1.35302619895402
H         3.77450600007674    1.22605006170635   -4.38384600976085
H         5.92648654247433    3.01737181269036   -3.64773918517110
H         5.65769107334829    2.20138926423682   -5.08846316744248
H         5.37380798208630    1.96578218078689   -1.89912118684707
H         5.61780449948375    0.46846136432517   -2.92814020508344
H         3.96430576441130   -0.60734857706788   -1.96026365193299
