37
 energy: -49.856634823461 gnorm: 0.323212996522 xtb: 6.4.1 (79825abcba525fcdf90b791dcacef51065a7a4e7)
C         2.40428329522309   -1.27830617270416    0.52805883876882
C         2.77257139545270    0.19455254586638    0.58366772054758
C         2.88462967481624    0.92568902376064   -0.81874129198587
C         1.23866430483535    0.95631157318370   -1.38260155055247
C         0.98016631060752    1.94898015838789   -2.50422945492936
O         2.01985532411918    1.92810775938338   -3.40193373484089
C         3.20531595430386    2.66254317284523   -3.22367193365901
C         3.37067579028511    3.33543591308441   -1.84892046851593
C         3.30221882815946    2.36864707908002   -0.57971715851101
C         2.31752332689449    3.03748091191167    0.36549815631837
C         1.82379621327419    3.72789238498955    1.35524614216705
C         4.62146549951319    2.56430268139250    0.14947352174048
C         5.79193480052264    2.73729734034171    0.69729721999198
C         4.43381009435400    1.82932908067713   -3.56627096482162
N         5.58951979381790    2.78974747519229   -3.94201162182798
C         4.86960230561227    0.88939361401777   -2.46797788602402
N         3.84757356715167    0.20970579763263   -1.68645310322391
H         3.12045259960648   -1.81227059596310   -0.09313305508683
H         1.40623628559743   -1.48339478348357    0.12035450174413
H         2.49128215695650   -1.80044217597495    1.49093006607371
H         3.75574115095535    0.27046605384923    1.06068730425612
H         1.98646376928192    0.67768115872966    1.17493175900795
H         0.63268821109475    1.18363271964546   -0.50921578961362
H         1.00939030006540   -0.10770495039123   -1.69447870620977
H         0.78677945304499    2.95319438041125   -2.08258366061034
H         0.08450842327148    1.67338692343419   -3.09309029440204
H         3.24089151242219    3.51207621058333   -3.91101348575432
H         2.70596999530110    4.22701199079578   -1.65522207085288
H         4.43608483853265    3.78012102291858   -1.87679558953553
H         1.05754407763086    4.28371377296255    1.84588099278128
H         6.76952364642347    2.97659740726196    1.05586393693146
H         4.06718676739327    1.24896023639299   -4.41633490972586
H         6.36635091857711    2.25519782775952   -4.33131321816678
H         5.29955728411253    3.37837953143081   -4.72667719136146
H         5.55012425355022    1.36079636420283   -1.73394402152544
H         5.45892964177362    0.08600796258506   -2.93112409660980
H         3.29419683210240   -0.50806561278671   -2.20037083081119
