37
 energy: -49.855249147124 gnorm: 0.328648307696 xtb: 6.4.1 (79825abcba525fcdf90b791dcacef51065a7a4e7)
C         2.52641412315126   -1.36307112375228    0.38916067041391
C         2.85639975168377    0.11013718625903    0.55888997676357
C         2.97476836783029    0.92373208448840   -0.79680942121193
C         1.53294148358864    0.78353509527449   -1.76094539215502
C         1.03436983965873    2.06074692916758   -2.41700753532053
O         1.84702224633881    2.56798192375980   -3.40167529752370
C         3.17176121502343    2.91290914601976   -3.08139194153585
C         3.42494889927244    3.40801919225199   -1.67973073031552
C         3.26946176744579    2.36992329964001   -0.47622556366146
C         2.20981302220866    3.04876158666149    0.37625255488537
C         1.52612574433608    3.55344884556855    1.36513980483171
C         4.49713502792464    2.47985412028543    0.41323808655059
C         5.68603185862106    2.73697809661589    0.88275678207278
C         4.18967857652243    1.83795970217377   -3.51679760671769
N         5.19847602492756    2.41128076095143   -4.54289707310005
C         4.93095369021150    1.08533316115307   -2.43804568191051
N         4.11741865814458    0.31144563330329   -1.51254144001112
H         3.42810516456483   -1.87536688762830    0.05991583304312
H         1.76039182476969   -1.53651736171900   -0.37733018992210
H         2.25673498953351   -1.87505614804138    1.32321650811609
H         3.83631209578933    0.33071074189198    0.99598540844643
H         2.03900728029924    0.56287266075055    1.13149084771712
H         0.71861086364176    0.31263611442028   -1.21614780753490
H         1.90438814569281    0.05782946107480   -2.54665768140311
H         0.78658251336997    2.83111810607424   -1.66284604944598
H         0.07743520087294    1.86156398704663   -2.93615493544741
H         3.34266187903495    3.78404270086514   -3.71961580855798
H         2.74064286329689    4.28924550973881   -1.50819009045655
H         4.51898092779133    3.75551919753898   -1.55341375527662
H         0.96102580358659    4.07103353874491    2.10646995806697
H         6.61325110425987    2.87815790450377    1.39446699377811
H         3.64109183748924    1.12318375290444   -4.13485690953492
H         6.08981718083632    2.62207388984216   -4.09362782702823
H         5.37327651442969    1.61901314611753   -5.16581185542284
H         5.53888706456615    1.82795434892347   -1.88753031202646
H         5.66129570164439    0.39679589475408   -2.88498707122920
H         3.90517034641572   -0.61814356512629   -1.93247907283567
