37
 energy: -49.703730732502 gnorm: 0.334843655505 xtb: 6.4.1 (79825abcba525fcdf90b791dcacef51065a7a4e7)
C         2.49436026784689   -1.49628516474812   -0.20573450716769
C         2.80624832373538   -0.11672457752532    0.34886418107543
C         3.13288794255970    0.84486867073353   -0.86872098297317
C         1.74094175520389    1.30252742470832   -1.80739686415604
C         1.36274354936396    2.75864064104845   -2.02410336865055
O         2.00552855579538    3.33822585043824   -3.09095401303459
C         3.38322031899691    3.17360090758492   -2.86434071678681
C         3.75860984599734    3.49137116461154   -1.46162859878524
C         3.55993632971197    2.39051689550791   -0.32193886108852
C         2.34170344157990    2.62111252009356    0.55733930947594
C         1.80991619589587    2.70448294187677    1.74489445506264
C         4.89438433931639    2.23559627224016    0.38915892341645
C         5.87158780422211    2.60998639479757    1.16693889908318
C         3.84263505083137    1.77127221113106   -3.46860883084366
N         4.18492088688092    2.13777541790196   -4.93413441899197
C         4.81044817766858    0.87630830176296   -2.73238972415507
N         4.30231326223271    0.22615337548703   -1.53389202419574
H         1.65074518370054   -1.26541574053755   -0.85296610850990
H         2.02364854050425   -2.09524696186974    0.58423842509252
H         3.33914552799602   -2.00971373797632   -0.68536433623671
H         3.62011284251039   -0.06098824427287    1.07992595605029
H         1.96002533773507    0.30534863830583    0.90269852328772
H         0.92985224793546    0.82867348805668   -1.26033116801025
H         1.77782683170980    0.62286741157743   -2.71219896991617
H         1.47376602530518    3.18611024573180   -1.00991719058909
H         0.32395551363311    3.04543157966062   -2.27625837177183
H         3.76188183434381    4.15276186100635   -3.16974159416381
H         2.90449043695053    4.20953010867664   -1.29136841554566
H         4.60268688551205    4.19473784435661   -1.10606205274285
H         0.78699557895720    2.58694974359317    2.02170062097699
H         6.16579705032648    2.82826369374634    2.17058751530909
H         3.01424575774274    1.08027275863058   -3.64221846662850
H         3.31027358032735    2.28706170845009   -5.43759379923137
H         4.94034039416069    1.89056990225305   -5.57794868712150
H         5.64704944708363    1.54768069096635   -2.46129228736577
H         5.22420262726395    0.25115962641573   -3.53565556810122
H         4.06255551189467   -0.64678154578956   -2.04967675069247
