37
 energy: -49.857060892886 gnorm: 0.326727154224 xtb: 6.4.1 (79825abcba525fcdf90b791dcacef51065a7a4e7)
C         2.39305765816279   -1.22287892168458    0.64913107447154
C         2.94341221999773    0.19139029110709    0.57846476430409
C         2.97407028834928    0.93946582768606   -0.81914452309088
C         1.34952179963245    0.87240207977820   -1.43916290396241
C         1.08464735809918    1.97035318361639   -2.45631883736797
O         2.01135285465232    2.08041251029152   -3.46446850053344
C         3.19549644850492    2.80376591204179   -3.23851860041512
C         3.36047651393607    3.37535319190497   -1.82256991470415
C         3.28398330004734    2.41922591158781   -0.54577180186061
C         2.24692347314443    3.08514146200671    0.34386812061889
C         1.49734485083807    3.54236720136944    1.30777267714889
C         4.59430607658829    2.54919908910122    0.21355231761823
C         5.66714283663033    2.51367699677734    0.95368454147739
C         4.35654901031635    1.83493862231744   -3.68087508553102
N         5.63637125873911    2.57851077661786   -4.13738894858005
C         4.87397905211314    1.03885081137070   -2.50692808116065
N         3.89414647347399    0.26295296782761   -1.76180399047195
H         2.92695250275933   -2.00349129794965    0.11108232226526
H         1.34528071219515   -1.30299366963559    0.33270241460013
H         2.39469853895576   -1.57776348164545    1.68902052284803
H         3.98935974944070    0.18768091157743    0.90390802856684
H         2.38744602010383    0.80652742529481    1.29503961063901
H         0.77205652971933    1.00060903178657   -0.52714236867152
H         1.27432743555931   -0.16658864214577   -1.88279471002002
H         0.95139837667209    2.91125993009690   -1.89013065338699
H         0.15808674185441    1.75200550542062   -3.02087307432428
H         3.27760865231296    3.62953549100659   -3.95039822523120
H         2.59040005810824    4.18531820868002   -1.66382582712652
H         4.37135343504627    3.93131530072467   -1.77106954013412
H         0.80594227010601    4.07213572884842    1.92267919074316
H         6.64397760718385    2.71188653571886    1.33842000907430
H         3.94022687008372    1.18832337500399   -4.45702839979982
H         6.15213199927422    1.85571679785902   -4.63970894388994
H         5.39565894954231    3.29728819932007   -4.82418048282299
H         5.40609215124247    1.64256949031602   -1.74764170880766
H         5.61179061500289    0.28711129632101   -2.81959631700160
H         3.41974575762496   -0.35021276212410   -2.45786777182975
