37
 energy: -49.856433812392 gnorm: 0.320849554134 xtb: 6.4.1 (79825abcba525fcdf90b791dcacef51065a7a4e7)
C         2.82139506794541   -1.39030804814332    0.29839524536491
C         2.89828418840457    0.10895072347482    0.53153142111077
C         3.03203252558694    0.91985290935216   -0.82435119669660
C         1.58621979987674    0.60885426416868   -1.74140274167394
C         1.00647731600996    1.81112733251791   -2.46851993353294
O         1.73238873977053    2.53426553431844   -3.38360770094762
C         3.05781598440273    2.92537984877831   -3.12522472109240
C         3.27749961078042    3.48144699944796   -1.71067042092514
C         3.24284324589191    2.43416389635550   -0.50558077096601
C         2.18871495982633    2.87459309522915    0.49703157839129
C         1.61471520217050    3.31712606714594    1.58087862155956
C         4.55238089403380    2.62719516199380    0.24158862851677
C         5.69136090995394    2.91078211484098    0.80933786859496
C         4.13192072879000    1.85721600457069   -3.52429211469444
N         5.13720372260980    2.60321062403490   -4.43651334523739
C         4.93961256661983    1.17552472276143   -2.44606574167785
N         4.19101523282427    0.32763722686223   -1.53064885163283
H         2.18337689245050   -1.61624225791357   -0.55353338279671
H         2.43940149149656   -1.95721567393428    1.15692809247004
H         3.84222996488383   -1.72208297020882    0.06358186718835
H         3.72090884876078    0.45756752076326    1.16532027317162
H         1.92976224095735    0.38200739794869    0.96555550986163
H         0.78211700272475    0.28843792916309   -1.08380356191079
H         1.78112538358135   -0.23608403611900   -2.46945231017183
H         0.57896843819257    2.52349511086860   -1.73817880494711
H         0.16353970885875    1.42000005290868   -3.06967499859825
H         3.24478672571699    3.79235511302163   -3.76460429918047
H         2.44557189063562    4.19913803925744   -1.45167890035341
H         4.28140542242220    4.04842507260821   -1.64488823662512
H         0.85666135536357    3.64508243775951    2.25511986720802
H         6.63328923527825    3.21750768020743    1.20959413926818
H         3.60945720223044    1.19748332950599   -4.22116658736050
H         5.68067388542242    3.25163899139765   -3.86647256649527
H         5.82083413385811    1.91516504590542   -4.76133445589750
H         5.36761497456348    1.88269089897894   -1.71062959428655
H         5.73182184703732    0.57706034952151   -2.91668711450447
H         3.88351022970730   -0.58182108888761   -1.93544421270755
