37
 energy: -49.852858465308 gnorm: 0.319387779472 xtb: 6.4.1 (79825abcba525fcdf90b791dcacef51065a7a4e7)
C         2.82835614426743   -1.43847083133219    0.28643808410578
C         2.87687772726743    0.06611927522505    0.49112209558058
C         3.07567901440688    0.92944661926572   -0.82379713802882
C         1.60689022286701    0.84385523754478   -1.75299664940464
C         1.05692355996304    2.10610871384842   -2.39682435919151
O         1.79551516444800    2.74130958328362   -3.36546473263471
C         3.17000261468010    2.94683445893598   -3.15325416127737
C         3.39098118102338    3.38564268201886   -1.73965322787767
C         3.35480544875065    2.39545774263179   -0.48726785498417
C         2.27611623612542    2.88570503939585    0.46482620609259
C         1.46724097920272    3.24088650759222    1.42378522915828
C         4.58904267055406    2.67152989664699    0.35585412393241
C         5.29685481714511    3.00601083014261    1.39852415583833
C         4.12423431306740    1.75585999003307   -3.62175061460633
N         5.14538671624828    2.43418401083189   -4.56852077446992
C         4.90736492377974    1.05731375909824   -2.53621810486671
N         4.14335814974325    0.25255691457701   -1.59496398051261
H         2.03066160728456   -1.80813895448890   -0.35459604228012
H         2.76948451866348   -1.89207428373254    1.28401516774301
H         3.77614233165904   -1.80311913787863   -0.13314356913884
H         3.75434592992782    0.23182876641689    1.12556928006366
H         1.98235550835390    0.42415333091952    1.01324586869714
H         0.87507105916979    0.42291450768842   -1.06820892264380
H         1.74363975329812    0.02574051571107   -2.52368008613252
H         0.84307220367632    2.80111917139663   -1.56324297896991
H         0.11491910929693    1.85681747266321   -2.92160361036088
H         3.38975739934682    3.78927872090096   -3.81462086127882
H         2.53571275762570    4.08294190286685   -1.50184975716728
H         4.42500003567801    3.89962925592987   -1.72412511776371
H         0.67174663907320    3.64903499302640    2.00465172257366
H         6.14189439918672    3.14867697837658    2.03654382376953
H         3.53727570258558    1.04424571525848   -4.20735635506425
H         5.77873987778138    2.98528444028412   -3.98893666123038
H         5.71955217660501    1.76545689918033   -5.08756228047663
H         5.56882716533238    1.80422904732430   -2.05796958791196
H         5.47835313391101    0.34000766410343   -3.14176253467241
H         3.78599758324877   -0.62847564352602   -2.02111899494635
