37
 energy: -49.853492801267 gnorm: 0.323429479893 xtb: 6.4.1 (79825abcba525fcdf90b791dcacef51065a7a4e7)
C         2.69141488678095   -1.49382961646209    0.18750111045330
C         2.96564595410295   -0.02612529028144    0.46800531752578
C         3.03177083586378    0.89251337972296   -0.82257561369112
C         1.40327717094728    0.83233796205879   -1.43287507603826
C         1.03989383365267    2.01698508229671   -2.31311654285084
O         1.91121535443759    2.15451769987018   -3.36627629458321
C         3.14690703572355    2.80950788024095   -3.22294630994496
C         3.34118504569529    3.34244750060824   -1.79304537616474
C         3.31013429513562    2.38091427217071   -0.51839493360454
C         2.25766111008025    2.92805859991849    0.43204137808952
C         1.67150275255382    3.62061446125037    1.36842822306327
C         4.58185158354065    2.60170390734657    0.28434977171697
C         5.48175821466145    2.95263317299558    1.16016541401613
C         4.26360803870474    1.87661854441415   -3.65116202622214
N         5.34309808025374    2.77156285891163   -4.30920865642861
C         4.87203339898435    1.07374199064204   -2.52650695002203
N         3.95452746867209    0.23179198996938   -1.77377703787011
H         3.33401549724050   -1.88462372181136   -0.59878145297266
H         1.63261656193108   -1.44693219475047   -0.09732995759025
H         2.74469040333410   -2.09012256518411    1.10886545040099
H         3.91574486186703    0.11618441821610    0.99430687035221
H         2.16308513728156    0.36221955168100    1.10523058287538
H         0.76710347696189    0.78612886778084   -0.55262944665770
H         1.39763247136696   -0.14569694986089   -2.00329679765322
H         0.98970417151925    2.98285127664007   -1.77626148904602
H         0.03775329357344    1.90453433963253   -2.76916581548020
H         3.13052766482319    3.63913061162467   -3.93489311383926
H         2.58190882211645    4.16048199520605   -1.62398932734020
H         4.32640588032269    3.94277682749822   -1.84367060569977
H         0.86214387167845    3.90513254513108    2.00150796575933
H         6.26885303525638    3.25834455362290    1.81479270131917
H         3.96129585264982    1.17931507423539   -4.43616176025117
H         5.88348671888988    2.99332595618206   -3.47280749501147
H         5.91115462101630    2.11162279006069   -4.84591796575663
H         5.38775982210663    1.70910981385197   -1.78187927487493
H         5.63523149288268    0.40300132614453   -2.94468784034766
H         3.38563146182507   -0.37617943619035   -2.40008456436275
