37
 energy: -49.853230456536 gnorm: 0.328955527514 xtb: 6.4.1 (79825abcba525fcdf90b791dcacef51065a7a4e7)
C         2.64271287112206   -1.27184304483466    0.31404559006332
C         2.82371857476258    0.21594923911965    0.56254575631730
C         3.04338924675397    1.00067725156373   -0.79753342829141
C         1.57789798104563    0.78885407424082   -1.71161461889386
C         1.08846908838133    2.09106146379654   -2.32396791793912
O         1.84938519341729    2.51877976289317   -3.38478157447030
C         3.16905532348404    2.89855039246787   -3.08355978108398
C         3.49726244978213    3.41723797844974   -1.73619290757560
C         3.33390359516826    2.44840890211723   -0.47725362110490
C         2.21199585990539    3.04951179905677    0.35364598350066
C         1.28119704859967    3.37519760021099    1.20662773019393
C         4.60299005546178    2.53796920851027    0.35449784832252
C         5.65227455233157    2.28970972967786    1.08757733851322
C         4.11367293367663    1.77756907600899   -3.57166208575550
N         5.05352756454361    2.48021232896320   -4.58270866000469
C         4.93750723263724    1.10541499229917   -2.49967927074758
N         4.17863466435026    0.36407674461286   -1.50377300805405
H         3.59369703941791   -1.72420230811469    0.04037415299567
H         1.94931875460721   -1.50997456223481   -0.50258160627168
H         2.35996563900346   -1.74228313662948    1.26591529283437
H         3.72888879098832    0.46626421499801    1.12640975117146
H         1.91974362486898    0.63497320014263    1.01885686711279
H         0.86055265081127    0.36902548626982   -1.01101184179052
H         1.81741564441441   -0.05204325313708   -2.43098105250992
H         1.10846943220815    2.90701088350322   -1.57733789771298
H         0.05124556704382    2.03120422916185   -2.70540762342447
H         3.32599899916951    3.74672403480673   -3.75540840012110
H         2.91892318095584    4.35972375971614   -1.50924576220960
H         4.58445991283534    3.78823182491133   -1.61794083185927
H         0.43082283908574    3.64824043643497    1.78896231035916
H         6.57656182939766    2.46762684886542    1.59309998100719
H         3.53047022339103    1.01836746012284   -4.09828991918244
H         5.65463188783674    2.96201827601922   -3.91390205357953
H         5.63335972098058    1.85415667555880   -5.14672550363482
H         5.53954408687953    1.88288855913226   -1.99250783238739
H         5.60529044668183    0.32740445851888   -2.89465371922416
H         3.85194133653212   -0.57296468020703   -1.82119682113446
