37
 energy: -49.854273908129 gnorm: 0.320543473084 xtb: 6.4.1 (79825abcba525fcdf90b791dcacef51065a7a4e7)
C         2.51317588762123   -1.38633529118216    0.34236034382169
C         2.88534764557203    0.07483526765274    0.52812917337553
C         3.11158612031361    0.89315304429957   -0.81091556629205
C         1.63445558973873    0.79946617261804   -1.72600370234754
C         1.10164462263356    2.06216442360738   -2.38324558266876
O         1.83585248927560    2.62092085326734   -3.40108247377122
C         3.17801440525605    2.90688210208252   -3.09560398433862
C         3.42461280317490    3.41865038459215   -1.69809464751188
C         3.29416141886662    2.43244604863949   -0.44884387917386
C         2.27045487228072    2.98983224584998    0.52672843879508
C         1.29929305933007    3.49362978643152    1.23600154128745
C         4.52331510807101    2.49846550738348    0.44291541440177
C         5.71944075147993    2.70771057659090    0.91782198995838
C         4.16278777751115    1.80055346125045   -3.56384812913132
N         5.14172403298332    2.48098559481529   -4.55275932974253
C         4.96228313158829    1.12996834627990   -2.47262679393607
N         4.23098529682686    0.27055928366902   -1.55397626390179
H         3.33095544973180   -2.10381192143252    0.32339406614394
H         1.87802530954775   -1.49211997192680   -0.54633270928984
H         1.87536621410927   -1.60913468512796    1.20889081570096
H         3.86816667467017    0.08721120272284    1.01170636927730
H         2.11438628113728    0.58431461047118    1.11721405138957
H         0.88104141707966    0.42398190689384   -1.03820775303027
H         1.74639739729956   -0.02544521934858   -2.49343794647812
H         0.94611971686711    2.75509650839163   -1.53513769694058
H         0.08730740903864    1.93492330017248   -2.80732279756060
H         3.35465764843278    3.74906055082744   -3.77009863731978
H         2.60218242114954    4.17729404560887   -1.54866631691453
H         4.47265318406244    3.89181392589019   -1.59157737277464
H         0.60456092086079    3.77646096386913    1.99373238032557
H         6.56844392879073    2.69680504831638    1.56635053843021
H         3.57189494718722    1.06661466151905   -4.11704689186470
H         5.89889044594952    2.95781698002514   -4.06276289297383
H         5.51717248537674    1.75128053725773   -5.16336149094285
H         5.49374470027503    1.86060131402290   -1.83398725844103
H         5.70496088124992    0.49257024861564   -2.97201947689804
H         3.77249290804074   -0.48845165868686   -2.10098646321697
