37
 energy: -49.852919200125 gnorm: 0.333238873045 xtb: 6.4.1 (79825abcba525fcdf90b791dcacef51065a7a4e7)
C         2.73137627105525   -1.22941636333955    0.36007850746593
C         2.96345163586974    0.24974202440460    0.61751348294437
C         2.88538870301936    1.03787022314278   -0.75603257268916
C         1.21232245571492    1.03871517376641   -1.23449547570693
C         1.08329193107769    2.04507739454732   -2.36624080641284
O         2.00819534264927    1.94137676347970   -3.37671680047011
C         3.20078424391211    2.66705481592319   -3.21054631909175
C         3.46287373950913    3.34819469188763   -1.90910526539971
C         3.33704362786090    2.46738214141304   -0.58299062182515
C         2.35433227398969    3.05938817058580    0.41410670822322
C         1.31990881860447    3.62664820219607    0.96928209504545
C         4.66490189247599    2.41722169830746    0.15503943729058
C         5.68528347495994    2.76308914108339    0.88936458478133
C         4.39000255062775    1.74506612131418   -3.62827514985304
N         5.61501438574312    2.67728882951801   -3.80019451911432
C         4.72314402580888    0.74130546088835   -2.55072120031146
N         3.59476577430410    0.23903741605981   -1.78144323419836
H         3.51014897243207   -1.58451392363137   -0.31172105279101
H         1.77124692888711   -1.47269531427684   -0.11251962682367
H         2.85040426990166   -1.81486924001082    1.28224610231174
H         3.91516638919931    0.46668619790145    1.11461263409150
H         2.14385338529011    0.67769314937393    1.20580606497837
H         0.70390469087692    1.32535524172228   -0.31741670851812
H         1.00838027311258   -0.02283109736789   -1.57138149869494
H         1.03686282416490    3.08834517545807   -2.00145795082008
H         0.07548523471395    1.86470129594734   -2.78660005337864
H         3.22307685687691    3.43219586792819   -3.99123359434526
H         2.86480934896996    4.26515896835515   -1.63386670209036
H         4.58266387789361    3.62858347075379   -1.87638693131065
H         0.62181158583854    4.07329980158680    1.64007629896156
H         6.61353833373619    2.64791255633494    1.40568995856993
H         4.16537713548325    1.25515433095333   -4.57873779000734
H         6.35071214925254    2.13199154809869   -4.24982251039409
H         5.27617242985827    3.40738880190619   -4.43138876017591
H         5.48226336238881    1.16286555626392   -1.86503810462953
H         5.26847988295170   -0.13284748833758   -2.93243451008780
H         2.90582281035675   -0.23979715027805   -2.39918759062419
