37
 energy: -49.677819496437 gnorm: 0.324863367667 xtb: 6.4.1 (79825abcba525fcdf90b791dcacef51065a7a4e7)
C         2.34357512555231   -1.17068159413606    0.75537004006463
C         3.25468259232297   -0.04719407014230    0.29093469043897
C         3.03640530825224    0.87075687423742   -0.98326688774423
C         1.38727974889162    0.64630683839669   -1.49128767272809
C         0.99637486973489    1.84122499215551   -2.34546868512139
O         1.83236708614839    2.47473028637559   -3.23262700830259
C         2.99688306949510    3.09594026660657   -2.74838510343655
C         3.24863366266551    3.54736925672005   -1.35318851468347
C         3.19700251054034    2.28963560233640   -0.37049612540617
C         2.30182791987034    2.77648540528668    0.75734943728242
C         1.57787315334135    3.81833900798852    1.05812526399436
C         4.67508447627271    2.25872503748855   -0.01732449249160
C         5.75702073784612    1.54931610768572    0.14450631093563
C         4.21994585815700    2.25870734673933   -3.54694071844248
N         5.43875988749323    3.18672018999102   -3.77614358749489
C         4.84477641744450    0.99358987896097   -3.00962727464442
N         3.99568027380165    0.38066904362974   -1.99934861777598
H         1.70245180014485   -1.69478348906703    0.04955567806161
H         1.85118777673248   -0.76514059095034    1.64838357868912
H         3.16119325845376   -1.79439619275779    1.14240555465558
H         4.28051453691622   -0.43078377073720    0.26946260041638
H         3.27669851287853    0.48765543831494    1.24718931075135
H         0.72891524410055    0.47518254718892   -0.64337421162790
H         1.31623768336899   -0.25383691180532   -2.17441234113974
H         0.56835971167249    2.64961296668996   -1.72342227351557
H         0.13410132162932    1.61023168379587   -2.99971494505666
H         3.10222372208035    3.90267773595411   -3.47878801464061
H         2.84153180859376    4.33257570569699   -0.65177587927697
H         4.33700566206103    3.86877951684217   -1.13927229052380
H         1.39248995328028    4.42945075847151    1.91192723043134
H         6.59796710459929    1.23464762453012   -0.43455115665206
H         3.70726108563636    2.15734565171343   -4.50648721857729
H         6.34673399169772    2.80362494747382   -4.03993652303392
H         4.79386882059768    3.49962323050839   -4.50585120717515
H         5.75553927256184    1.29279231158203   -2.45724580466984
H         5.01651602072616    0.34002500058936   -3.87599789592685
H         3.90667878088656   -0.64884703752794   -1.86627579567402
