37
 energy: -49.853820149331 gnorm: 0.317624606091 xtb: 6.4.1 (79825abcba525fcdf90b791dcacef51065a7a4e7)
C         2.48326949797771   -1.26174391496629    0.55532945345671
C         2.98002742660532    0.17345275022291    0.59384399593661
C         2.85905432373089    0.93893042712427   -0.78936895958846
C         1.24441143897381    0.90886667490609   -1.43752222581302
C         1.05032652931128    2.04180588832327   -2.43202766852814
O         1.99153318989499    2.07261256471585   -3.43224906743451
C         3.23534424022364    2.69667264371511   -3.23231747681250
C         3.38961681154064    3.33746411172891   -1.85192310351681
C         3.31731647791308    2.40850793496108   -0.55498166702834
C         2.38086051137636    3.02460273844325    0.47160162926337
C         1.53887345728613    3.80279585247003    1.09249520045264
C         4.62949578690102    2.35556804437346    0.21039069199104
C         5.70774990599999    2.66843723668174    0.87335160278696
C         4.38163296370686    1.78894854923840   -3.63572817172482
N         5.57211813381753    2.66794391713320   -4.09328871010352
C         4.83035885261634    0.97398893846260   -2.44655739790878
N         3.81806561875087    0.25563198794306   -1.68726499276772
H         3.16101003663316   -1.87593439062826   -0.03402075542565
H         1.46675488932172   -1.26253698225832    0.14171197367599
H         2.37538260870394   -1.68304039296676    1.56438123854401
H         4.02941405838214    0.12817739219917    0.90476384267508
H         2.46561212943616    0.80229722273477    1.32930517853979
H         0.57355966125026    1.07182867963554   -0.59782829668747
H         1.05772343268673   -0.10107889016571   -1.91409607722232
H         0.86598272371499    3.02512182625938   -1.96007747642941
H         0.09448522553997    1.81615348980417   -2.94228267111641
H         3.27716297653501    3.51843400798921   -3.95229654961167
H         2.61172552888525    4.14930326775050   -1.75160809703678
H         4.46410035585578    3.75389392127794   -1.77649342472680
H         0.89253691231093    4.08173821023219    1.89327139207031
H         6.54716916614058    2.85046329648495    1.50876992072764
H         3.95989745658537    1.21903424126176   -4.46710426791427
H         6.20078110042529    2.00177871478732   -4.54247959657333
H         5.33087235860885    3.26720327237938   -4.88635536037694
H         5.43095485957437    1.61500148718445   -1.77385855178929
H         5.49842195547923    0.18109571216610   -2.81022159572498
H         3.45882860477035   -0.59202341125246   -2.17507861624023
