37
 energy: -49.855427006458 gnorm: 0.310076318567 xtb: 6.4.1 (79825abcba525fcdf90b791dcacef51065a7a4e7)
C         2.59986937871324   -1.41654025041119    0.22190695185507
C         2.95342469583514    0.03457457600803    0.49994593433380
C         3.02339550254231    0.90980874543244   -0.82025779267893
C         1.42787690973359    0.81044156196949   -1.50766212348305
C         1.05815765556318    1.99778974933864   -2.38160333669480
O         1.92267859916898    2.21618835583399   -3.42667149850878
C         3.18077405768092    2.77881033804398   -3.14892723760915
C         3.50875914361415    3.35653693722335   -1.76366722673241
C         3.30068770666306    2.41694364427738   -0.48925961972835
C         2.23463962223152    3.03091163401200    0.40347814718885
C         1.58079269924271    3.55108837685016    1.40444559584668
C         4.57512390649759    2.62977689358057    0.31131916808510
C         5.26084821460649    3.00008663362777    1.35663692770103
C         4.29189925482325    1.81054754207270   -3.61685855961625
N         5.35441072080024    2.67906229414720   -4.33519062311272
C         4.94232606503820    1.02476564845793   -2.50369504952386
N         4.04311402269861    0.24683511123713   -1.66492151720417
H         3.31172810745925   -1.86024879972175   -0.47111232669587
H         1.60369695187196   -1.65956621634309   -0.16919517552958
H         2.67957641091556   -1.92403242880979    1.19320211098713
H         3.91781642796254    0.13380758925022    1.00988191877474
H         2.22622608866631    0.42380601226514    1.22150860970924
H         0.78199734018196    0.78243094820492   -0.63374015645304
H         1.31355862185098   -0.10889424343465   -2.15859844752217
H         0.91495312375215    2.89573621537147   -1.75167122723957
H         0.09092233749002    1.78717900935759   -2.87658891860882
H         3.25879731072824    3.70841663538691   -3.71915080404042
H         2.96490995021926    4.33521636627424   -1.61987780162179
H         4.64922135121804    3.52990165848988   -1.81760181330465
H         0.93289171946152    4.02179460337159    2.10833641287101
H         6.16692919313616    3.11668128781674    1.91065639264448
H         3.84528605650442    1.17137118117470   -4.38226015389021
H         6.01317429116945    2.09956328826449   -4.85574524601463
H         4.89135115816354    3.18644695031776   -5.09308419270187
H         5.51309245337172    1.69740241986897   -1.83592121616037
H         5.62086141238036    0.26223031551259   -2.91035126176529
H         3.58461924031850   -0.44668284967351   -2.29289318198244
