37
 energy: -49.854995344513 gnorm: 0.320211135878 xtb: 6.4.1 (79825abcba525fcdf90b791dcacef51065a7a4e7)
C         2.51311897162620   -1.29609454784368    0.52094835589295
C         3.01657678273864    0.13704193221699    0.54724169038306
C         2.89728246492285    0.91369137849235   -0.82987600584427
C         1.21116483670340    0.98517138001277   -1.25411188880395
C         1.04880465447011    1.96040845397893   -2.40858714186179
O         2.06721816272842    1.86520092330031   -3.32566474403653
C         3.20232460701584    2.68660368268601   -3.21025062413329
C         3.44540848312422    3.37034452073787   -1.79962250147346
C         3.35799479376050    2.39254051847796   -0.54005821373247
C         2.41577908619152    3.05027256795472    0.45493623974968
C         1.50383057528188    3.86340975054397    0.91012118983942
C         4.73181463705727    2.42278774770201    0.10964643423795
C         5.64340836843057    2.79244702078780    0.96544149124644
C         4.35763664904014    1.78886874321239   -3.61843100718003
N         5.58221050447563    2.70776618348543   -3.85358161893986
C         4.76160042191468    0.85157534623797   -2.50580547349823
N         3.63851439442076    0.17340308583198   -1.87647295690826
H         2.84940648447516   -1.85195031862260   -0.35188090441838
H         1.41603908688662   -1.30130867691477    0.54870691353031
H         2.81264852485566   -1.79346800377040    1.45380284634087
H         4.09526322666470    0.04607955638549    0.71485646900752
H         2.53240092106609    0.76953637718081    1.29990106340252
H         0.66803187971750    1.24277046020881   -0.34838901605245
H         1.01712699588132   -0.08172747196824   -1.57975164066071
H         0.92655597415507    3.01281135535154   -2.09057259869488
H         0.15638758944274    1.66907451638898   -2.99478513699216
H         3.16017578795695    3.50208173612300   -3.93731969458302
H         2.65988790369414    4.17628536017349   -1.71200090410301
H         4.48502949609292    3.82718464594248   -2.00963095625365
H         0.93273365234538    4.56863465241306    1.46986078516425
H         6.53955749098057    2.82918476909044    1.54602885929071
H         4.14031256054313    1.28301667239760   -4.56221768476147
H         6.34688363075481    2.20924694536921   -4.30912440953969
H         5.22530680898965    3.36098013710809   -4.55514935881718
H         5.29421472441390    1.42891057045312   -1.72661202351471
H         5.49358916921282    0.09869860859555   -2.82923818409805
H         3.06605370139004   -0.23349618305920   -2.64605386834359
