37
 energy: -49.854695970366 gnorm: 0.322699744864 xtb: 6.4.1 (79825abcba525fcdf90b791dcacef51065a7a4e7)
C         2.54467228067499   -1.36567860043297    0.38914105810077
C         2.64188118203168    0.14120639362736    0.55614202116316
C         2.98061559995415    0.90487869194441   -0.79142328738797
C         1.59569540134817    0.74990878899964   -1.83356459443298
C         1.08709714051148    2.06113547977310   -2.40999643220884
O         1.85715852415186    2.59114143861793   -3.41665477798570
C         3.19176267742225    2.92224375273562   -3.12392185581178
C         3.41201670188190    3.43361277516764   -1.66281247350413
C         3.35718231379242    2.34214569762726   -0.49836545625788
C         2.34387724606661    2.92692441384310    0.47201721891568
C         1.63031258505369    3.61250936762422    1.32103683939747
C         4.67496181906764    2.44607620742344    0.25201290245339
C         5.62839308734515    2.91948200892384    1.00493525537556
C         4.19100421060715    1.75712477847376   -3.57005270860086
N         5.27606503854987    2.41198029099247   -4.46059001872385
C         4.86736700042797    1.05071635075002   -2.41976503600879
N         4.13646487753275    0.25198739663390   -1.44759560586355
H         3.58511150318075   -1.67601234939805    0.31790177542387
H         1.91422498022014   -1.71777391748859   -0.43726506918630
H         2.16920927136074   -1.77219909202014    1.33839572721165
H         3.39707915774318    0.35962328927757    1.31896794449450
H         1.69181982470010    0.50931584066489    0.95968938149952
H         0.78219507315331    0.33964006446480   -1.24062158957222
H         1.97931841259294    0.10291643789694   -2.67985022876098
H         0.92023317480809    2.72799203595697   -1.54334274892490
H         0.15013845375128    1.93556724416861   -2.98554209342757
H         3.40873052196502    3.77215441441960   -3.77659883057300
H         2.64236774327454    4.23474280210242   -1.46258278534013
H         4.44115580928269    3.94217130222872   -1.53687902024354
H         0.88385676192330    3.88302392542279    2.03267427487953
H         6.54072396566962    2.92793396523895    1.56089889740086
H         3.53872779436676    1.11487186609117   -4.16662294176172
H         5.95380930054728    1.68377920052315   -4.68675708541498
H         4.84596166721895    2.85618533014212   -5.27542680228837
H         5.45979805209449    1.77784874559751   -1.83287465594896
H         5.64588429317974    0.39100482693064   -2.82711151843508
H         3.91543881195512   -0.72293255393562   -1.74121373818493
