37
 energy: -49.852359340758 gnorm: 0.320987797951 xtb: 6.4.1 (79825abcba525fcdf90b791dcacef51065a7a4e7)
C         2.59248788965102   -1.36572902737399    0.32580627667027
C         2.72561572405462    0.12880317029568    0.56390660725777
C         2.98713151019549    0.94892647209753   -0.76758725661262
C         1.53070912625102    0.73535846284370   -1.69565011889554
C         1.05707425657260    2.02202558180971   -2.35171339669667
O         1.85108965875547    2.41646786712400   -3.40110212392923
C         3.15412620943964    2.89144569429847   -3.17092531499803
C         3.40805818601571    3.44010172055926   -1.75536676634382
C         3.29248573775190    2.42639377398243   -0.52683787557471
C         2.13558719845800    2.93556505031805    0.31739326189254
C         1.59326363988474    3.46339261036323    1.37914595916791
C         4.61829495289321    2.47848405362775    0.21473379486374
C         5.70329110917836    2.58171042776441    0.93039007137824
C         4.21813661976277    1.83844461449784   -3.57197720006550
N         5.27719415651164    2.56268885900422   -4.43980025319936
C         4.89967337777459    1.13270694801739   -2.42433474107474
N         4.09563756200048    0.32149075065634   -1.52280607010658
H         3.54306613223691   -1.87728877604572    0.18941171974850
H         1.81728917515321   -1.53251751216945   -0.43289692786859
H         2.15985705353132   -1.71718392920859    1.27270955573976
H         3.65516108418307    0.21885251778922    1.13641848545280
H         1.91352005706041    0.54215173966753    1.17268834781861
H         0.80525611220424    0.41332524020548   -0.95288693636705
H         1.69715393796473   -0.02800730575429   -2.51512185121918
H         0.97041728266369    2.83118562793128   -1.60246013842815
H         0.03958420716183    1.91372729252840   -2.77349207157441
H         3.22169657496300    3.73599860371502   -3.86199335846294
H         2.68181399574523    4.29744204208756   -1.64674948622758
H         4.46786212896514    3.89881358355156   -1.75120285533983
H         0.87684186686955    3.69669457989178    2.13354128426251
H         6.74895562158880    2.53497250601257    1.14467007003765
H         3.76354465233116    1.08749103456294   -4.22256480656171
H         5.43822649005339    3.43919662445484   -3.94324373118180
H         6.13885165799873    2.01620256310337   -4.51166880837205
H         5.40990980336975    1.85975402195326   -1.76463956057773
H         5.65589024083091    0.45293843594923   -2.84061643971649
H         3.71750213935398   -0.45171165875234   -2.10992162569956
