37
 energy: -49.854468121893 gnorm: 0.333474873188 xtb: 6.4.1 (79825abcba525fcdf90b791dcacef51065a7a4e7)
C         2.63219234013713   -1.14031213500970    0.45857995442304
C         2.81352462346253    0.35753213057864    0.63640693953883
C         3.06303349019042    1.03814872263974   -0.77369058406731
C         1.65365452264754    0.78426900993296   -1.76226235619310
C         1.13259696901141    2.07593212214173   -2.37083997621342
O         1.84638029498327    2.57963428547653   -3.43105663821192
C         3.21362138382334    2.81382978541527   -3.20237820704171
C         3.49681108368718    3.46432297458215   -1.77627032403136
C         3.28156091489489    2.49107126745688   -0.52859548566254
C         2.19874071398726    3.10423149470248    0.34429099260915
C         1.38170572531491    3.44842256934493    1.30033589348850
C         4.55519099871962    2.56954329687926    0.29731039786585
C         5.56596827923374    2.34625125108154    1.09009425342701
C         4.07966133740439    1.63034389128673   -3.58010872228588
N         5.13720920034597    2.30234118359478   -4.49074674044017
C         4.91373592790410    1.03783214723818   -2.46975263943934
N         4.25030818822688    0.37353370937968   -1.35805552414996
H         3.54317870550581   -1.67572123907557    0.19908663989588
H         1.83057147745185   -1.44776382218178   -0.22498383246945
H         2.34212689961685   -1.61605108101172    1.40560176186094
H         3.66100620742448    0.58051816188249    1.29366298315291
H         1.89363812839576    0.77122749648978    1.06493535189515
H         0.84628469129581    0.29450315207342   -1.22377560866442
H         2.01296381484471    0.04076228081757   -2.53689754024311
H         0.96323762880812    2.85983583583069   -1.60897237753131
H         0.15374732042575    1.82641805014574   -2.82306543327707
H         3.51656578244741    3.63091807717649   -3.86268255096639
H         2.94306839206724    4.43789872356688   -1.63562873922515
H         4.60606894462358    3.78530732629900   -1.78786133288092
H         0.70136287228625    4.00861190372001    1.90043904305315
H         6.34918065774531    2.28425898665954    1.81414530435454
H         3.46909046198416    0.88627392964287   -4.09722811667877
H         5.86785922970850    1.65722432350267   -4.79197825657849
H         4.62244032045076    2.54232992329362   -5.34144317031831
H         5.58106003071349    1.78201582491707   -1.99540510379893
H         5.58974047396944    0.26879523451174   -2.86829963434239
H         3.99825484501271   -0.60089499598591   -1.62729677231887
