37
 energy: -49.854348910133 gnorm: 0.321615770061 xtb: 6.4.1 (79825abcba525fcdf90b791dcacef51065a7a4e7)
C         2.63142688243176   -1.25828853618567    0.46108871843077
C         2.82136720432923    0.23971663058647    0.62825471979668
C         2.91536981955299    0.98780875883331   -0.76651777851183
C         1.35853266102017    0.90404849776960   -1.53938284552478
C         1.02746009978664    2.10802677447037   -2.40603650049749
O         1.94035958780049    2.15266348528392   -3.43165044590182
C         3.21226209934506    2.71322889234140   -3.22065286859905
C         3.43264435349163    3.34420717040718   -1.80301938203850
C         3.26290578955268    2.43697715428449   -0.49980545823674
C         2.21551368187925    3.06719072888389    0.40363044316547
C         1.52247966433273    3.66901981000959    1.32966561143178
C         4.58925188171982    2.49897661380418    0.24004189601096
C         5.65480567779352    2.88139188713525    0.88687257702665
C         4.32051853531152    1.73295820626372   -3.60037471758667
N         5.49607316358880    2.53415593102429   -4.21307608461362
C         4.85010840857763    0.86648547760810   -2.48305614319315
N         3.91479334637560    0.23868611870756   -1.56199536570507
H         3.56251205959921   -1.68206743499534    0.09043027096967
H         1.75867872543088   -1.51771037925484   -0.15160448373558
H         2.46043150352949   -1.75504903006540    1.42613037577287
H         3.74506593992599    0.49997132886531    1.15644166592772
H         1.94060308886390    0.64399438502478    1.13990468799505
H         0.64248015715787    0.64011230713012   -0.76524389394380
H         1.35287894969061   -0.04439740733210   -2.15775449163837
H         0.99977002575255    3.02200672894415   -1.78353850130613
H         0.05004571195380    2.06736812282631   -2.92364615958568
H         3.28470256432008    3.56691542520792   -3.89990399626429
H         2.73896289574283    4.22438643661480   -1.66755256926132
H         4.54620201520041    3.63842122132515   -1.88695823906410
H         0.85737436384815    3.88198735986910    2.13532187307355
H         6.67821097122069    2.96420730380099    1.18233462915779
H         3.90890876569668    1.12713974773964   -4.41118342662616
H         6.26211333389060    1.87847134046683   -4.36807876228849
H         5.27695776973547    2.97153872339657   -5.11138045831394
H         5.57837281381244    1.49200425732104   -1.93306196034227
H         5.47475016668636    0.04720864492114   -2.86495635532563
H         3.41726464062525   -0.49321462970662   -2.11183126923067
