37
 energy: -49.858671452034 gnorm: 0.323757217692 xtb: 6.4.1 (79825abcba525fcdf90b791dcacef51065a7a4e7)
C         2.47435023678672   -1.23484518727801    0.53744159630641
C         2.79848828278986    0.24681065270279    0.62503027425561
C         3.00977804198422    0.93917747630834   -0.78559138487251
C         1.48294549854182    0.83756519874368   -1.61416573914193
C         1.10468986006197    2.06271738522462   -2.43036796963863
O         1.93875034808199    2.50952813102948   -3.42634243510740
C         3.27357966141420    2.80878858726226   -3.10205331153017
C         3.51885339510801    3.36955872128962   -1.72648561932328
C         3.30166379228942    2.40929541121733   -0.46912048509648
C         2.24061386181057    3.05059190205525    0.41025866556468
C         1.43075395509868    3.70218985617190    1.19739435439446
C         4.53296988712291    2.39123857579251    0.42193017836709
C         5.70749050832936    2.68699061869656    0.90470169304107
C         4.26655392485947    1.69820800090212   -3.57046763954369
N         5.25899929223547    2.38836406804031   -4.53896453635831
C         4.97690317259358    1.03172839512570   -2.41684287326884
N         4.10179002054635    0.27553883815754   -1.53386292929813
H         3.30795595965719   -1.81169028391463    0.14216058214150
H         1.57600139901460   -1.40123882783107   -0.07055883151697
H         2.18705576119498   -1.67058198593277    1.50434962443897
H         3.75776684535091    0.33063291758138    1.14722925881842
H         1.95983089727183    0.72903422088890    1.13989514949699
H         0.75876633358226    0.77305927059387   -0.80602705079183
H         1.51602155446879   -0.11003674770000   -2.23297234676809
H         0.89968050502399    2.85458332398863   -1.68568726241281
H         0.15694522659409    1.87412197530635   -2.96992672615624
H         3.45888682968140    3.59775518674172   -3.83594933283705
H         2.88874598815506    4.29636649190581   -1.59138278687910
H         4.59461109467929    3.78558283257536   -1.78382335210674
H         0.64306631663854    4.13809468627515    1.76865385898830
H         6.68142073979714    2.68592672293292    1.34398906994475
H         3.66816910868861    0.94647796753277   -4.09074346878031
H         6.05834543526974    1.78257468147524   -4.72559416325538
H         4.70357894006513    2.41399972198485   -5.39751975085440
H         5.61438369668469    1.72071974944699   -1.83114168329919
H         5.63571021181262    0.24491246121419   -2.80944139311371
H         3.73535391081360   -0.47722382118358   -2.15402903248849
