37
 energy: -49.858915171794 gnorm: 0.317927190373 xtb: 6.4.1 (79825abcba525fcdf90b791dcacef51065a7a4e7)
C         2.65267314435231   -1.34933257057236    0.52242495509834
C         2.91635363757686    0.14660776318219    0.54843251007653
C         2.88196147603557    0.95063513176717   -0.81766624764946
C         1.21083506592794    1.00602146372607   -1.29969011328131
C         1.04457982642618    2.03632080391497   -2.40472574810014
O         1.98681698318781    1.93546545247175   -3.39935091100799
C         3.17222676587137    2.66790963824796   -3.21275317807450
C         3.45981643020909    3.32382535452105   -1.86351315266287
C         3.34400054389709    2.42137973694535   -0.55110215886537
C         2.32947289118670    3.08051772725765    0.36904273081311
C         1.48573210063725    3.88467128659791    0.95340055361375
C         4.66544475519292    2.52070295982102    0.19343264643663
C         5.72447052719574    2.50637099481725    0.95388994351775
C         4.38795106024237    1.76934277168172   -3.59094577552721
N         5.53316644768568    2.74040589963170   -3.97142910143302
C         4.81655419085965    0.90105200563339   -2.43249347952849
N         3.71730839303971    0.20189674959819   -1.78431151401777
H         3.33133195560804   -1.85152241670006   -0.16395935652555
H         1.60153243850779   -1.53272046146858    0.26580442555679
H         2.81236438181444   -1.81888274800210    1.50290297517098
H         3.84708489405604    0.42886882961523    1.05241795706530
H         2.17552632495957    0.71923031878966    1.11786198023000
H         0.55456911258812    1.28430695657028   -0.47898505033549
H         0.93363695643664   -0.02845282577932   -1.66709893806941
H         0.98811646922576    3.07457529446810   -2.02727461413934
H         0.09336585706556    1.77670055662025   -2.90741957378245
H         3.19306320086567    3.39566469021188   -4.02844235853281
H         2.82090645117436    4.23627405019972   -1.68050445885129
H         4.55714598301126    3.68308136257756   -1.88403832878113
H         0.91900634176828    4.36667511517243    1.71713905979829
H         6.67995348352214    2.55979952639823    1.42898183939616
H         4.09465450946848    1.17921415897148   -4.46248161733722
H         6.34323032305278    2.16771066729871   -4.20929953588657
H         5.23694254072747    3.27988867234348   -4.78842098976008
H         5.37223366858441    1.48796911445753   -1.67692414829872
H         5.44636353470994    0.11587328524111   -2.87303200682642
H         3.07805341956634   -0.09755272853126   -2.55061180002152
