37
 energy: -49.855480001071 gnorm: 0.318797545353 xtb: 6.4.1 (79825abcba525fcdf90b791dcacef51065a7a4e7)
C         2.43285848525371   -1.27621603285045    0.36643335085104
C         2.81665842170058    0.17626803851588    0.59232914263221
C         3.08013334031072    0.99992412805178   -0.73659533205674
C         1.67464073139872    0.84466992061001   -1.75077716418147
C         1.18105064779066    2.11504670402720   -2.42366121562063
O         1.93500010614492    2.62236510725837   -3.45392823349180
C         3.27509584827023    2.89548253938489   -3.12829067073248
C         3.50350115851809    3.40809568642588   -1.71856723729677
C         3.32607491090612    2.48152912947813   -0.43006488278982
C         2.23313525926325    2.99014832450820    0.49577809246476
C         1.37358691879094    3.70235409683816    1.16955481980855
C         4.58566174821021    2.54251782736742    0.41854181784095
C         5.71150460324727    2.78304017023311    1.03063910108629
C         4.12195148968789    1.64624424671071   -3.50395509570129
N         5.04383929367854    2.16867309933220   -4.63375172084151
C         4.97618455883358    0.99290252189364   -2.44420433527246
N         4.22407516425464    0.32585249881000   -1.39221812732939
H         3.22327260455506   -1.86137903999597   -0.09910464110542
H         1.48510312102133   -1.25595504995793   -0.18649635564317
H         2.16100924332993   -1.68663133147000    1.34876378436485
H         3.63105909408004    0.31362420423374    1.31192496024333
H         1.97152035384127    0.69007197070240    1.06426005419680
H         0.91391757916408    0.42920968633526   -1.09474538390646
H         1.95609788299570    0.10485048301480   -2.56035369769073
H         1.01212186280980    2.90177176253103   -1.66461141206788
H         0.16776459182143    1.97289492705403   -2.84550954349249
H         3.63593768530979    3.68929725098912   -3.78788280537050
H         2.72275688239956    4.21252522251907   -1.58593143111972
H         4.56584245990339    3.85944752789889   -1.68208744936916
H         0.64720238800733    3.90441563110983    1.92343736941041
H         6.55574616741512    2.63925372053132    1.66946320140225
H         3.38395483519098    0.99164071545267   -3.97374709711769
H         5.84527321877413    1.53862245904071   -4.67255261348935
H         4.57137870475411    2.03706081638589   -5.53137369560953
H         5.56141394800466    1.80663168459156   -1.97570908375901
H         5.70107400869397    0.28640392932659   -2.87156209025403
H         3.91239330576496   -0.63569838258989   -1.64481931681580
