37
 energy: -49.854848489985 gnorm: 0.318597479125 xtb: 6.4.1 (79825abcba525fcdf90b791dcacef51065a7a4e7)
C         2.43048547878289   -1.27893475925103    0.47587932963532
C         2.77528226880819    0.19564838917884    0.59737414233047
C         2.99022181597622    0.98411870048961   -0.76129587105671
C         1.48873594810220    0.80680115020533   -1.62279271159457
C         1.10813644977663    2.07466192449462   -2.36974275552751
O         1.88980186358518    2.39304447128006   -3.45366785022792
C         3.22556804048409    2.77254443970048   -3.23412731477255
C         3.50476997019512    3.32379524670925   -1.84892827735968
C         3.37995310147118    2.45571831173697   -0.51434699453690
C         2.32472045729786    3.07541535553015    0.38723800569723
C         1.58726435347517    3.46477446054315    1.38953211351859
C         4.67050715066741    2.54875813032920    0.28329066584438
C         5.47411060814392    2.97492117087518    1.21744421808236
C         4.24905304322830    1.67866485139775   -3.65784412842633
N         5.36864325264497    2.35774850031640   -4.48525732878657
C         4.90740911157200    1.01336797220838   -2.47311269478167
N         4.04660092912336    0.30010354383134   -1.54168240502457
H         3.28616362529765   -1.80278563000104    0.05481992565627
H         1.54544872960968   -1.37476281925541   -0.16592198986767
H         2.31735874983741   -1.63653980310870    1.50866042168419
H         3.73514169105554    0.22417759661272    1.12443133659285
H         2.04187459793856    0.75842571917085    1.18590322821347
H         0.69936675687062    0.53748219198673   -0.92562114300861
H         1.58929993449794    0.01065180345756   -2.42154060322284
H         0.99011702158221    2.86210381958467   -1.60186481418694
H         0.11586045662929    1.82741684674302   -2.79302752448455
H         3.34114235594480    3.59625442389729   -3.94374330341554
H         2.83629731187978    4.21614614672218   -1.67253399392272
H         4.53175329101967    3.85183777500958   -1.83919917811899
H         0.84798749543349    3.69670128696020    2.12198140056618
H         6.33527114893488    3.06501829838785    1.84338322812016
H         3.72925556171153    0.92448693274981   -4.25355850211266
H         6.06807221276360    1.66029706485739   -4.74045583940004
H         5.09720282639189    2.97142466268675   -5.25725970794638
H         5.51609780220355    1.73983070065966   -1.90224811282045
H         5.59406783824615    0.27745627498679   -2.91376379661635
H         3.59987871709791   -0.48640873230955   -2.05876145520803
