37
 energy: -49.856079113006 gnorm: 0.317005720004 xtb: 6.4.1 (79825abcba525fcdf90b791dcacef51065a7a4e7)
C         2.94761967749669   -1.43902591133401    0.30568056840482
C         3.05389561399823    0.06828205643407    0.46306351895512
C         3.13703564415702    0.91320814944176   -0.87598699491186
C         1.56398420257295    0.75007382767348   -1.60191707857918
C         0.98731541864753    1.98987733591700   -2.26569540280131
O         1.72698633697734    2.49000453078550   -3.30973639702790
C         3.05232311216342    2.92359216909879   -3.13092436080835
C         3.45286675809895    3.37450003978946   -1.68324840775784
C         3.37906070168048    2.37428974750804   -0.44051912111129
C         2.26894505834292    2.88210521987838    0.46510912426868
C         1.44842220390305    3.35215568535705    1.36278968942240
C         4.60289446944384    2.54191151502873    0.44522684260555
C         5.29384552918109    3.06490281598414    1.41944603252090
C         4.09721115252625    1.85381699364680   -3.69230066436179
N         5.03620587380093    2.54022394794701   -4.71522971853759
C         4.93210374946642    1.14898274582919   -2.65028134846605
N         4.16866028015126    0.30289730067300   -1.74552019487683
H         3.74765931422183   -1.83660356820558   -0.31541880632811
H         1.94460424247631   -1.69652681693038   -0.05768607686731
H         3.00870812725637   -1.90330504926438    1.29967699277464
H         3.99349479819057    0.31363057353707    0.96990746966214
H         2.18031366891213    0.39955733880093    1.03584872499505
H         0.90692932626149    0.35419082188218   -0.83169623196848
H         1.59630358105138    0.00278263905290   -2.45190321328931
H         0.81605659143337    2.75808346976850   -1.48841835673855
H         0.01029053213971    1.76469266242414   -2.73433812876197
H         3.19918169103891    3.83274258868757   -3.72023623423505
H         2.80037972541048    4.26134480942937   -1.43419461328788
H         4.51427227941207    3.82841902111538   -1.65171766417329
H         0.67801241555546    3.75188514138601    1.98205325254234
H         6.03676363176784    3.19940773818356    2.17541941768335
H         3.48677555428228    1.15323115052801   -4.26710256640678
H         5.80732440175164    2.91433293418692   -4.16189045808287
H         5.43076005525038    1.84105663086572   -5.34907360414357
H         5.54191580295458    1.87759570448981   -2.08336971095790
H         5.55666259727020    0.41863860348784   -3.18297573170826
H         3.64497493954907   -0.47698887410575   -2.19614671183034
