37
 energy: -49.855043225295 gnorm: 0.322280722410 xtb: 6.4.1 (79825abcba525fcdf90b791dcacef51065a7a4e7)
C         2.44590818532623   -1.21775656941213    0.64784632133320
C         3.04120318035800    0.17621497898399    0.54533549917005
C         2.91883514407017    0.90692980894318   -0.85643143828379
C         1.24472248511542    0.88576221798460   -1.33074870496623
C         1.08963251529920    1.99793778116295   -2.35508942324445
O         2.02443628283627    1.96412282409918   -3.36120091856626
C         3.20085404169956    2.71804410414829   -3.20585127358235
C         3.47366101768959    3.34090833166388   -1.86127536870054
C         3.24652515169554    2.38054184571059   -0.60574778091384
C         2.18795096274662    3.04714367119128    0.25765162882819
C         1.63613930369468    3.78097281177689    1.18341304261452
C         4.55031116279893    2.35819435643931    0.17531211266562
C         5.62680371041965    2.76890694586151    0.78565237285037
C         4.40987637304856    1.79721823072805   -3.60505860090963
N         5.58281722650627    2.74484254436021   -3.95927231870975
C         4.83161719528400    0.85762531107236   -2.50100197001121
N         3.71674644216461    0.17241835251569   -1.86472067671528
H         2.81942612655490   -1.79561413152531   -0.19504206532469
H         1.35261787289988   -1.30508552768553    0.60948039938029
H         2.73358714568878   -1.57708192738619    1.64556467395402
H         4.12004236788676    0.16908237445467    0.73504170770252
H         2.63344220050904    0.80646740956473    1.34376174924337
H         0.66060548680951    1.05005701309001   -0.42880681663208
H         0.89657311418159   -0.10826543180775   -1.74627985782637
H         1.08992975354767    3.01554910299631   -1.92138795255589
H         0.13297524022366    1.78124683541120   -2.86769420544640
H         3.18470212216735    3.57459768790134   -3.88516378299834
H         2.80837597040788    4.24772669624771   -1.76464711392007
H         4.57482523276269    3.68883832298377   -1.86064510758752
H         0.77027457152973    4.22806206234529    1.61606966101128
H         6.51142950044898    2.96006165455962    1.35346542170735
H         4.13875099256847    1.19481296888906   -4.47537365785724
H         6.41072796104933    2.14885582914154   -3.97064358984061
H         5.52957600302142    3.16484340684877   -4.89041712931898
H         5.43496784393267    1.39435190627474   -1.74467601803252
H         5.48174594451811    0.06299697962040   -2.89233054146380
H         3.03674226528983   -0.09941436492540   -2.60582413273797
