37
 energy: -49.852168137954 gnorm: 0.329213501439 xtb: 6.4.1 (79825abcba525fcdf90b791dcacef51065a7a4e7)
C         2.69809898472546   -1.30468689714816    0.50830269802599
C         2.82632739164742    0.20682580151564    0.59153799668336
C         2.96936770515598    0.95507676779091   -0.79897579545161
C         1.49429528803064    0.84236061862941   -1.71523698372646
C         1.03645956004011    2.11239271295377   -2.41356800458074
O         1.87317842378749    2.55445381332256   -3.40943215329741
C         3.19454128268882    2.93128149017749   -3.11195837439103
C         3.45290853314765    3.41671915600323   -1.66369446652826
C         3.30975531562909    2.35513549563001   -0.47929955286688
C         2.23814810964884    2.91370543888659    0.44268386923378
C         1.22440060825664    3.45640280213995    1.05736355233075
C         4.61185379141791    2.35162461583939    0.30488105916274
C         5.76830391150120    2.33159640042445    0.90675997384501
C         4.20922114225765    1.83553213048757   -3.55400372859710
N         5.15679869134692    2.58301936770854   -4.52488428871371
C         4.90574944036350    1.09074168886303   -2.44055110364664
N         4.08463409416858    0.30921005507680   -1.52825885331728
H         3.61045017450126   -1.80054568898951    0.18328698772883
H         1.92930422917498   -1.52435726453318   -0.24341636632321
H         2.40758284195673   -1.69179878921242    1.49474101950687
H         3.73459822178599    0.43829224515632    1.15846012249555
H         2.00595847938613    0.62594360313076    1.18509232099253
H         0.72792098818587    0.53971141843037   -1.00618232329512
H         1.65926073177717   -0.01844647013304   -2.43200936762775
H         0.82722287717797    2.84851135151492   -1.61483199259557
H         0.09678297087839    2.00264954870731   -2.98791643220863
H         3.40901629422512    3.74214014740927   -3.81332783424258
H         2.68783079983924    4.18681626331963   -1.35407005457869
H         4.53032162009131    3.82064881357440   -1.56551003601575
H         0.61878971555362    3.98092876569451    1.76086210890681
H         6.74958256818751    2.40579947728070    1.32281370918418
H         3.71548741267998    1.15011924806423   -4.24703010230837
H         5.90319737474143    3.06272275188179   -4.02135740409840
H         5.54709969860149    2.03987088164389   -5.29878406033224
H         5.49289334701693    1.74777170983216   -1.77143977264631
H         5.52232975535901    0.34827908014493   -2.96573451577211
H         3.84798516198740   -0.66392968439844   -1.81553810715738
