37
 energy: -49.855816530640 gnorm: 0.319946477740 xtb: 6.4.1 (79825abcba525fcdf90b791dcacef51065a7a4e7)
C         2.58288424577905   -1.26264460564582    0.46443225438027
C         3.03381730283466    0.18577691855005    0.54674716116604
C         2.87539963540869    0.95323084144540   -0.83158043594068
C         1.21511465338431    0.94065684157611   -1.35251594476225
C         1.01004239824161    2.01537967232410   -2.40758821551225
O         1.93898270931716    1.93794771718698   -3.41671460351517
C         3.12628612192292    2.66508927767576   -3.22161127315450
C         3.43849333327929    3.36256339239993   -1.89113345156678
C         3.36017015505936    2.44817953962703   -0.58422425099116
C         2.39966896785448    3.05622266441277    0.42479353445280
C         1.55414434098584    3.75147513330266    1.13313496802307
C         4.72336715457455    2.54797082445020    0.08071756617551
C         5.65606923162266    2.76330685093070    0.96600482397960
C         4.38631269409874    1.76102028802325   -3.56523766569609
N         5.58334035642278    2.69837378525608   -3.86145150779523
C         4.78644850365973    0.84212998611466   -2.43600200957687
N         3.62173542356375    0.18942874375648   -1.85744882640648
H         3.13225746623034   -1.78844209580920   -0.31378488169527
H         1.50249604023880   -1.18629102968924    0.28747617236375
H         2.67212977160351   -1.73130001919575    1.45423685517991
H         4.09319344880831    0.26420353764196    0.81415089888667
H         2.47951296915425    0.73896679468007    1.31336263609223
H         0.57571010447834    0.99933400499461   -0.47535949878921
H         1.06745178177097   -0.07636647640442   -1.82772572908306
H         0.88442745683076    3.04115046932462   -2.01306950252419
H         0.01396567790866    1.77696943416237   -2.82699672310135
H         3.24390203369902    3.44624641639662   -3.97750176371544
H         2.80872478990226    4.27689459640124   -1.68704818427077
H         4.49744863841772    3.81313926866167   -1.98711964042809
H         0.88553341960968    4.18811685495831    1.83960911635261
H         6.59300144314849    2.83736626510581    1.47412669404049
H         4.18971768217293    1.13851612912989   -4.44141592566500
H         6.33050463484962    2.02383225273309   -4.02729757149217
H         5.45872408684297    3.09998038660035   -4.79389396382766
H         5.30280139361597    1.34705936196737   -1.59781205060283
H         5.50523222690286    0.12443502134025   -2.85493341604900
H         3.02405988753817   -0.21963542933432   -2.60643714094730
