37
 energy: -49.710765322283 gnorm: 0.316228108144 xtb: 6.4.1 (79825abcba525fcdf90b791dcacef51065a7a4e7)
C         2.18233235511936   -1.22462732360471    0.08694126840698
C         2.99406704114392    0.02184923668677    0.39584944517117
C         3.10804981535686    0.99232721917880   -0.85276941527596
C         1.50172360622239    1.00103956529448   -1.52188699548806
C         0.90202370549003    2.30659811640538   -2.01801015345931
O         1.72169108862763    2.83760346810026   -2.98415743707045
C         3.07737794391134    3.16699062175303   -2.81064430935167
C         3.74488144433463    3.59837658918685   -1.43180127184951
C         3.71681253868801    2.49386082144114   -0.27876135607075
C         2.74875349434649    2.74558198554099    0.86574466148559
C         1.45455513177099    2.61697516047928    0.77329744303855
C         5.13232780315098    2.26601588319115    0.22603092377212
C         6.06932785720313    1.92445241029962    1.06591277825052
C         3.96705321476154    2.05004515218465   -3.51249931578980
N         4.95708416225768    2.50080597756761   -4.61517916266168
C         4.89073294379101    1.16350069180659   -2.71218943953051
N         3.88037804689438    0.41715600311384   -1.97771558402776
H         1.40682362049391   -1.24636551180054   -0.67595420317500
H         1.61520233438286   -1.38332346501405    1.01298720272371
H         2.80529820534093   -2.11213516442783   -0.09070779634109
H         3.92669024720918   -0.38070235853443    0.80584881205283
H         2.39175032525561    0.55856096582439    1.13755471906510
H         0.95023008620802    0.66589681136251   -0.64711911243037
H         1.25305813320382    0.16860352952644   -2.24795918261439
H         0.68436338626823    2.85895790964582   -1.08465464745394
H         0.03214131605305    2.08726784180563   -2.66616957046589
H         3.17936173651957    4.12879593366029   -3.32048767728583
H         3.14756945438674    4.52978935640902   -1.20830764934840
H         4.67323305272329    4.09912699885635   -1.90194019817366
H         0.73409670301599    2.83883822596251    1.52729926585170
H         7.11672971928733    1.73441891827871    1.15729791374851
H         3.26250488054595    1.29212052903411   -3.86322895550493
H         4.73707158850256    3.27610849073347   -5.24069186066828
H         4.86966332528603    1.71513512565969   -5.26429003179351
H         5.60532366958104    1.67256162377862   -2.03813198572752
H         5.32711101584587    0.73051336779450   -3.62286818752381
H         4.66996802772700   -0.09954132044311   -1.53600914600907
