37
 energy: -49.852426755585 gnorm: 0.306867441757 xtb: 6.4.1 (79825abcba525fcdf90b791dcacef51065a7a4e7)
C         2.60428154375160   -1.36102876299190    0.28761331377534
C         2.80083613685089    0.13086141173520    0.49659004892334
C         2.99070014706381    0.89825270159687   -0.87779378085248
C         1.48038373337868    0.74370692242391   -1.72816902951831
C         1.00414808501236    2.04770007755721   -2.34708966054889
O         1.80275463049260    2.38497146328824   -3.41279950563230
C         3.12582255792049    2.78995038872235   -3.16385597508642
C         3.33812540581285    3.38512230294722   -1.76133371008338
C         3.23908629002251    2.39265714321327   -0.51415762679296
C         2.27791334049746    2.97178798502029    0.51109844093063
C         1.68521917056564    3.57205558779417    1.50529556199054
C         4.48843584557101    2.58573473120855    0.32979664743705
C         5.67128156133136    2.64455489477510    0.87518872930586
C         4.22994622268081    1.78396387747507   -3.61009907094826
N         5.27633841984242    2.63832201657473   -4.36798097677166
C         4.94711464284272    1.03852871051821   -2.51026404295658
N         4.12624159634525    0.26754278739401   -1.58882635978526
H         3.55209092831680   -1.89308318951698    0.23790109634216
H         2.06123207480782   -1.42884815674740   -0.66363838911286
H         1.97799482105427   -1.80677647174423    1.07271822991006
H         3.71890386410273    0.23516642536420    1.08498228575770
H         1.98998150017587    0.57009664933963    1.08867009744408
H         0.83765341370869    0.45673467126239   -0.89977945904576
H         1.50589034624432   -0.03408080836425   -2.55058057516397
H         0.98156092268298    2.84945177802188   -1.58530630082674
H        -0.01452577858518    1.96554763593731   -2.77190292130171
H         3.19629575335282    3.62493248221865   -3.86617274411394
H         2.66127346647692    4.26377309421144   -1.55132177577016
H         4.42724098401382    3.76910810719866   -1.76202388056039
H         1.07215866846084    4.12472773546031    2.18021234000399
H         6.24817675647907    2.91814726407918    1.73184140299156
H         3.82892571790198    1.09884524330535   -4.36086160436165
H         5.73221873177502    3.20363518645571   -3.65148965370127
H         6.03137149620886    2.07244683308375   -4.76291937827139
H         5.51383259202906    1.76163772122620   -1.89375734109612
H         5.68796188085325    0.39043613611537   -2.99848634002383
H         3.89933627326455   -0.65837928375491   -2.00920158708204
