37
 energy: -49.855279862219 gnorm: 0.327062154286 xtb: 6.4.1 (79825abcba525fcdf90b791dcacef51065a7a4e7)
C         2.70603515081191   -1.43232263778532    0.40461405824821
C         2.99268546351716    0.05685913720983    0.49522595964486
C         3.03840127803706    0.87412801529789   -0.86265853141739
C         1.47367385639844    0.79817893058035   -1.62024546608200
C         1.07274666051314    2.07064287528853   -2.34849966759713
O         1.89606199096702    2.53614539555617   -3.34485359381384
C         3.21554442831830    2.94547733677844   -3.08427153103162
C         3.35982699610793    3.46470583763784   -1.69133396332685
C         3.25623869056150    2.37432900167424   -0.52918429300346
C         2.20253262497532    2.88047592874444    0.44236841858271
C         1.40381515132999    3.59130658571844    1.18856256807469
C         4.53591882757091    2.56698191472459    0.26813344913400
C         5.54358580851415    2.75342248164448    1.07428695032953
C         4.20566517434706    1.86632770876724   -3.54585666166878
N         5.33419462202679    2.53067141547715   -4.37309191747610
C         4.91820634390961    1.10374617199246   -2.45480409580768
N         4.04189254639168    0.20353776381528   -1.72063912353944
H         3.31643482229940   -2.01559867523862   -0.28175111570956
H         1.67363570162968   -1.70578199498450    0.15211979014335
H         2.85930105391321   -1.82493040913634    1.41934777163065
H         3.91767350961354    0.20903298094248    1.06194771497311
H         2.18759347924355    0.57800642301211    1.02551269631088
H         0.72502804457928    0.53991426037073   -0.87558888360355
H         1.52616955602558   -0.06528526157668   -2.35075137458058
H         0.82369188681201    2.82983072287316   -1.58349287805179
H         0.15030492194634    1.82107370749945   -2.90682595216343
H         3.32198128653554    3.79125653340055   -3.76891680967078
H         2.60487049648337    4.28091119069989   -1.49611544584761
H         4.42789882380153    3.90137193650015   -1.64481947526132
H         0.67197143727868    4.00257214352853    1.84588112671298
H         6.46766117903423    2.75050699825862    1.61056187929599
H         3.65568045565500    1.14393579312064   -4.15373502054764
H         6.23845790861245    2.16821950327287   -4.07026824804523
H         5.16522701945378    2.41820319635557   -5.37562214627881
H         5.45877309132545    1.73482647390677   -1.72428261564980
H         5.70529930138822    0.52296853686452   -2.95522555954867
H         3.60661732183810   -0.47311930369783   -2.38260870834605
