37
 energy: -49.856008755585 gnorm: 0.326871734374 xtb: 6.4.1 (79825abcba525fcdf90b791dcacef51065a7a4e7)
C         2.56412524803954   -1.30639925138185    0.39506407184553
C         2.85983961610924    0.17303112299572    0.57361394538773
C         3.02491962527267    0.92939193708584   -0.81005348406522
C         1.54683557702296    0.78169853514233   -1.71643769419762
C         1.12077873009774    2.10459287427294   -2.33181353031514
O         1.82779750252107    2.56240880215386   -3.41707428591565
C         3.18137501575453    2.85893953198024   -3.17961482836697
C         3.51424883799091    3.39496157032858   -1.78430587708734
C         3.35040462310263    2.41796372162289   -0.53175874460553
C         2.27850755588472    3.01046618877648    0.36844862226641
C         1.41638955757212    3.45288862540547    1.24083072344403
C         4.51293620517167    2.49645022592224    0.44434175013063
C         5.61749594933964    2.74752716065093    1.09005411011958
C         4.17687021555556    1.77279504873710   -3.56945630905292
N         5.26475022049098    2.54234858093464   -4.35911060005374
C         4.92720755064117    0.97155484829016   -2.53280340440899
N         4.13632713275212    0.26993309666815   -1.53303626224990
H         3.38144243365576   -1.91278525658712    0.01011670188813
H         1.67518670991548   -1.46990437705992   -0.22737977901085
H         2.37548911741817   -1.64840435669723    1.42208146528502
H         3.82159344202593    0.26118096257386    1.09052060643114
H         2.06242919290339    0.70574216968060    1.10401678985120
H         0.80370950699033    0.43226028613953   -1.00415883628774
H         1.69134561002945   -0.07541041279943   -2.44200381362461
H         1.07296788283104    2.85554169273967   -1.52099921667394
H         0.09326932388905    2.03840979287949   -2.73771498446274
H         3.36866487272822    3.67987127271756   -3.87704152581652
H         2.84664142073244    4.29228014834268   -1.63139915520095
H         4.61567316702441    3.74182863404149   -1.77142209722893
H         0.65291265791852    3.93022352177786    1.81184442922466
H         6.34546366957870    2.83440667786849    1.86724748692976
H         3.64333040067744    1.09854739459438   -4.24367788730325
H         6.02106006748331    1.88159450618818   -4.53845697704406
H         4.76118735555663    2.88535284264826   -5.18071788349164
H         5.68353521593926    1.54513565818742   -1.96437583115839
H         5.50332734180740    0.12703201302317   -2.93542828374707
H         3.76896024391220   -0.64794033107520   -1.86179602094478
