37
 energy: -49.851978195223 gnorm: 0.314548991863 xtb: 6.4.1 (79825abcba525fcdf90b791dcacef51065a7a4e7)
C         2.53322982019468   -1.26955970244964    0.53334969698334
C         2.87485699131665    0.21059931589335    0.55483071051524
C         2.83047090822946    1.02152784195653   -0.80689372831386
C         1.17059249771553    1.08345897187675   -1.32559048828697
C         1.03928931865289    1.92364856650200   -2.58539293689385
O         2.13137087143226    1.75027450551724   -3.40059916432303
C         3.22399471182756    2.62495211120362   -3.26792745820709
C         3.34536181904570    3.32066127533096   -1.86444958058147
C         3.26930506210030    2.47504491750568   -0.51189926426391
C         2.22205216847841    3.14545469145067    0.36229059582213
C         1.70537214089938    3.68785681085093    1.42947251225916
C         4.66421240473979    2.50532445014786    0.09119993944630
C         5.81911951592063    2.63084733696048    0.68320482470987
C         4.43801290125343    1.79614230633939   -3.54622038699657
N         5.56741693224028    2.80421483455169   -3.87407059066272
C         4.82683733569949    0.89457200624839   -2.39921220339527
N         3.67042484597672    0.27418314488331   -1.77062086494470
H         3.11481742875132   -1.84350826416758   -0.18514508307181
H         1.47410128063109   -1.40810215847701    0.28148718935001
H         2.78378463258208   -1.69222782857797    1.51614659840142
H         3.92195194725564    0.29155347344909    0.86623380909965
H         2.25725188338482    0.73476854719369    1.29292431392818
H         0.55449993526091    1.38180996568783   -0.48113725905561
H         0.81278357199774    0.03126258103504   -1.54197121722661
H         0.87612263490081    3.00299784137063   -2.40647498771595
H         0.18633052258204    1.49609262843437   -3.14625743275350
H         3.15794846441091    3.34199197796193   -4.09066808226780
H         2.58823502352036    4.15735092571580   -1.83330143698769
H         4.37125928996774    3.83878991039361   -1.75177568394322
H         1.02263221717541    4.29846518341216    1.97520676426672
H         6.82535216276928    2.45873919802850    0.99846545005733
H         4.17441704633227    1.21642412153278   -4.43407928415605
H         6.45748297502299    2.32368471034020   -4.00688208906636
H         5.37126201215714    3.20290295943278   -4.79539411532929
H         5.38542866820282    1.52458751387369   -1.68144303974329
H         5.45258528481932    0.05230622135649   -2.72519913313192
H         3.14531937714268   -0.27302628306119   -2.48501510341070
