37
 energy: -49.854050560940 gnorm: 0.319266085772 xtb: 6.4.1 (79825abcba525fcdf90b791dcacef51065a7a4e7)
C         2.50503555235520   -1.27643180212746    0.39595713566814
C         2.68782054555459    0.21540687387370    0.61742561766244
C         3.01746031444388    0.98756574801663   -0.72755651669240
C         1.55877584014984    0.86353965309250   -1.66826649502023
C         1.10025660392721    2.09471460476341   -2.43261565439836
O         1.91081237394909    2.57732661508944   -3.43128820695448
C         3.24965962484462    2.86681949081843   -3.11478944594313
C         3.56168229397761    3.36358389060923   -1.70126910162433
C         3.36372240006880    2.42715505715518   -0.42292761904233
C         2.20447282464119    3.02641695143543    0.35644483538032
C         1.50994786745808    3.86096473337945    1.07838710714144
C         4.62283844327077    2.62193337614539    0.40598746686206
C         5.78311357590697    2.66871546563370    0.99895397816516
C         4.13318104770341    1.58418503375208   -3.56261132680023
N         5.19013737456647    2.06816389957851   -4.58626030174326
C         4.93883524192578    1.04789862015931   -2.40375006594504
N         4.18271369075850    0.34563364720735   -1.37788293812060
H         3.29423652699832   -1.73381907466815   -0.19721615384932
H         1.54334945413629   -1.56293147999898   -0.04840733324125
H         2.50965062846553   -1.80779337882451    1.35770002446072
H         3.47109324165749    0.39667937572419    1.36144005013815
H         1.77414334876159    0.60117654604838    1.08363089413463
H         0.75784684122407    0.64605723813326   -0.96619900883711
H         1.69200615311478    0.03353220114419   -2.42675341342897
H         0.97034902352230    2.88778486023564   -1.67248839745702
H         0.10767126870106    1.78398089752533   -2.81094181803681
H         3.44638423932784    3.65651284783759   -3.84492247473315
H         2.95900442897720    4.28904826547973   -1.46769716648733
H         4.67833092739280    3.65759212822380   -1.68473743982305
H         0.69416320697692    4.24006097684437    1.65073637727400
H         6.53436325279816    2.87468407500972    1.73019639871592
H         3.53036844448568    0.81497502060176   -4.05126487568422
H         5.71931710817746    1.27176342109733   -4.94190161304251
H         4.75368513049782    2.58004437636143   -5.35681453528438
H         5.55187081046606    1.87335406297342   -1.99515846978220
H         5.66640704193139    0.33317705792194   -2.81247000776341
H         3.86574830145896   -0.58650711862809   -1.71873418716975
