37
 energy: -49.855813249237 gnorm: 0.324449796738 xtb: 6.4.1 (79825abcba525fcdf90b791dcacef51065a7a4e7)
C         2.90361443689031   -1.37611469810309    0.12229202834374
C         2.94251186672484    0.10372529825602    0.46376216272011
C         3.17612210371374    0.97540581864789   -0.83987427952193
C         1.70141643667685    0.70724651851016   -1.72384934510915
C         1.14601945637481    2.00595470640703   -2.28523381771501
O         1.82952083928752    2.69758883821889   -3.25566153957599
C         3.18792712187317    3.00497147058351   -3.06399036071250
C         3.51561340943498    3.45931530077062   -1.65571639701624
C         3.33660724625174    2.43637092477081   -0.44254468245665
C         2.13992394418676    2.81672972666349    0.41400191812778
C         1.35798203048266    3.25494687231094    1.36087472228222
C         4.47068956760357    2.62998652515275    0.55082444816245
C         5.26291103623083    2.89876655677441    1.55091380288774
C         4.03785323142793    1.85614141481901   -3.59977142627838
N         4.78622587871116    2.37261320075303   -4.85374300430487
C         4.95936667165454    1.13385285923284   -2.64648582271257
N         4.34778623281142    0.40660877025528   -1.54449459848849
H         2.27919749146792   -1.48210255623566   -0.76244855458556
H         2.45585093001300   -1.93854967155593    0.95148244117322
H         3.91954645266645   -1.78594902233802    0.03724043058260
H         3.74810829006074    0.33415831344260    1.16934585044482
H         1.99810215798097    0.40082395623486    0.93364971226760
H         0.90893858005534    0.26177673815364   -1.12784587291158
H         1.98349811282154   -0.07613758564756   -2.49112007005326
H         0.87192606022988    2.71528094865945   -1.48189145697069
H         0.17784891335500    1.74117924566678   -2.75155079751669
H         3.29210745922529    3.86005072193560   -3.73733747996818
H         3.03627065421470    4.44812272809542   -1.39735395686293
H         4.63740005398320    3.73326526576670   -1.66853997712261
H         0.52952308088897    3.32961077629517    2.02787047002699
H         5.96795215293512    2.91988893420264    2.35340083738508
H         3.29237004054603    1.17815629430168   -4.02219344067104
H         5.63892126680044    2.82470443064173   -4.52315300160842
H         5.00001059438376    1.57890315826524   -5.46250114551714
H         5.60117993045159    1.88164869348765   -2.14348132973146
H         5.61272407006336    0.42507598309256   -3.17374199986616
H         4.02499825056845   -0.52446389187705   -1.88279129624119
