37
 energy: -49.855017361327 gnorm: 0.322366643975 xtb: 6.4.1 (79825abcba525fcdf90b791dcacef51065a7a4e7)
C         2.65244557315948   -1.40799572342126    0.35215548761787
C         2.84312943847630    0.09206936852165    0.49873536635971
C         3.06535363745481    0.90798011118108   -0.84244870423717
C         1.55104711895035    0.74423735655021   -1.68396056354708
C         1.01727624962011    1.98687782588305   -2.37764248779913
O         1.80281831207416    2.49674537072598   -3.38273981187424
C         3.13063225320280    2.86170859341444   -3.09954105505262
C         3.34400338587341    3.40934688316143   -1.67039874545362
C         3.31199415377050    2.36768092853156   -0.46037747256081
C         2.30770635164499    2.92730006399886    0.53392041438688
C         1.37695372802551    3.54201217573286    1.20909748997165
C         4.59068167480523    2.47883803515554    0.35387939960603
C         5.72691670751777    2.47674430244019    0.99341194938448
C         4.18267208112812    1.85659496746842   -3.59469780315538
N         5.09745045187239    2.68968429837671   -4.52657340777508
C         4.97659407835200    1.16677669402122   -2.51142506192870
N         4.17463133480034    0.32798088079902   -1.63360013749345
H         3.59289163773438   -1.80821412562897   -0.02104992097830
H         1.78993892513328   -1.72791583474460   -0.24627195377673
H         2.56473495772892   -1.85436657905632    1.35234332769018
H         3.75496243347347    0.22981082868604    1.08993853913049
H         2.04564481001853    0.65174450287075    1.00048593293421
H         0.73607339107828    0.44309832356098   -1.03064768066238
H         1.82820793218649   -0.07785423506496   -2.41149914710672
H         0.72492202481169    2.74299486370528   -1.62501649262024
H         0.11860975559321    1.64189814485283   -2.92381034001460
H         3.29621794520907    3.69979283607623   -3.78189477021321
H         2.49141214360904    4.09303638007580   -1.38770171243858
H         4.37791448629889    3.92247237065742   -1.63367849432264
H         0.81183625331122    3.98309544651292    1.99833133278163
H         6.54647110398540    2.73182338435439    1.62963503749849
H         3.77453196629127    1.15700190577292   -4.32807394432958
H         5.44771642251069    3.52069869664818   -4.04960959933059
H         5.90489405471194    2.06787201532173   -4.61403953589231
H         5.52506653395069    1.91923285190104   -1.91382646360316
H         5.68413246977341    0.43140362412468   -2.91867866750378
H         3.76724670450525   -0.48107134703802   -2.14838678741719
