37
 energy: -49.852477969052 gnorm: 0.325732587013 xtb: 6.4.1 (79825abcba525fcdf90b791dcacef51065a7a4e7)
C         2.37182751601650   -1.18093793363065    0.46752974259868
C         2.89432877640225    0.23704910589832    0.62356328423266
C         2.99478102746616    0.92268910150821   -0.80250676580222
C         1.43468089336172    0.87636838244290   -1.57193518592550
C         1.08754644544835    2.05682407608590   -2.46428227058405
O         1.96028836848266    2.32869552492708   -3.48979157193345
C         3.23186824067786    2.86149151429069   -3.21465049104021
C         3.45761925585699    3.39377026439813   -1.77422989672240
C         3.35392706239586    2.38184954227858   -0.54317002474785
C         2.31816392244721    2.94966863204028    0.41347622099813
C         1.51944837578872    3.61817519281119    1.19781542655559
C         4.61265601829833    2.51045803647263    0.29913232223665
C         5.76850953104497    2.81604590096317    0.81937746226289
C         4.25096889568368    1.72572353423286   -3.53025314156478
N         5.42528823921212    2.43634206741012   -4.24805870234871
C         4.86695419433265    0.93281042489448   -2.40264854202366
N         3.99433047886682    0.13241853381443   -1.55695360394735
H         2.99117392264146   -1.82686424509111   -0.15140892611398
H         1.33900657349158   -1.22596903513250    0.09924303534043
H         2.30196666229220   -1.79860040477273    1.37358070204885
H         3.90868299939259    0.32381421329421    1.02790304059778
H         2.20853117391959    0.75659415191232    1.30233144297503
H         0.68307618010898    0.92150180350806   -0.78788292578686
H         1.26375794106382   -0.08324739132089   -2.14803240264030
H         0.99558232209598    2.95317870570535   -1.82262750804710
H         0.09769609600666    1.79111443420384   -2.88202195332968
H         3.29994794480156    3.71734481544866   -3.89162219840610
H         2.72128333059292    4.23322389580760   -1.60873739551749
H         4.50221447604338    3.88605659313899   -1.76457059176100
H         0.89191991304246    3.85335296915366    2.02709324899238
H         6.57831716711893    3.03257161670010    1.48182957109213
H         3.79502904238037    1.01079657522313   -4.21934505359783
H         6.21501420414257    1.81841112956087   -4.43583492889823
H         5.03804993166165    2.81864469212239   -5.11417486488037
H         5.50016143247149    1.61133613830383   -1.80032982351894
H         5.60429903995813    0.24598510071756   -2.84063618939906
H         3.44338064455200   -0.58589841237073   -2.07271331955161
