37
 energy: -49.855738503488 gnorm: 0.325483481702 xtb: 6.4.1 (79825abcba525fcdf90b791dcacef51065a7a4e7)
C         2.74510806310878   -1.43958788346698    0.36963760599702
C         3.06859011582887    0.03922292749241    0.49816474109133
C         3.03820944743154    0.86569076156633   -0.85457195914952
C         1.48787704406527    0.71436210396693   -1.63023116761373
C         1.04599590977813    2.02474244746035   -2.26102884334999
O         1.74727647426395    2.32551178414339   -3.40339710801627
C         3.03919592893425    2.83621873526196   -3.18749878750569
C         3.26187124150944    3.40503494496979   -1.77083213321265
C         3.27390562799693    2.36672912270667   -0.55756373890992
C         2.23935643885884    2.80670855823116    0.46543279323066
C         1.47498873339673    3.31465207462690    1.39159200245377
C         4.58398013101948    2.51187610591840    0.19943634554502
C         5.55840368518534    2.96877163751805    0.93549440794227
C         4.19944970871096    1.86241800207606   -3.58758572409868
N         5.21512152239061    2.69768366632865   -4.40611579709511
C         4.96303716902145    1.22958820027491   -2.44912103318587
N         4.14391409609571    0.31333786473501   -1.67013324737830
H         1.73340424327838   -1.68320014778376    0.05182588110470
H         2.90040323917091   -1.98986728653456    1.30636487954979
H         3.40845471184517   -1.95783756850762   -0.33655237965364
H         4.05132846412804    0.20648182267696    0.95223864796615
H         2.27157767463136    0.43398513878116    1.13840343475456
H         0.73134231658401    0.45843704809798   -0.89277459992740
H         1.57697716106767   -0.04988657836121   -2.46086358495324
H         0.96834216582220    2.88805839067294   -1.57379865296171
H         0.00137678483974    1.92623737588040   -2.61313593691433
H         3.24043367925808    3.66651591149750   -3.86978932589355
H         2.43732302339177    4.14479546888709   -1.55372532455272
H         4.26144420568442    3.98206431673224   -1.73198242986190
H         0.73104577576977    3.59490374047383    2.10209192715113
H         6.41709611112150    3.27525130913014    1.49247926019218
H         3.85623471088574    1.11858435499239   -4.31061016387859
H         5.66741587232400    3.37495749948339   -3.79170906630639
H         5.94040482696616    2.11074413721697   -4.82531995733928
H         5.25313939275643    2.04644727984569   -1.76157588355974
H         5.79240559857647    0.60914313466935   -2.81577557793742
H         3.75352403367885   -0.45011533752562   -2.26196755399120
