37
 energy: -49.854725212569 gnorm: 0.318085961672 xtb: 6.4.1 (79825abcba525fcdf90b791dcacef51065a7a4e7)
C         2.48669604416010   -1.22470718879654    0.56549270967940
C         2.73434258032568    0.27310179180571    0.62277034821893
C         2.97726937815056    0.96513626113346   -0.78291222957786
C         1.46739292538426    0.91875557292497   -1.64674095074728
C         1.11100226126113    2.20679925494594   -2.37075093423238
O         1.90992884050431    2.56913673709026   -3.42795940267433
C         3.28043879560248    2.79544460221477   -3.21121816275208
C         3.60283697660457    3.37686898635863   -1.88409006984985
C         3.38506495673801    2.45160201438560   -0.60085183318156
C         2.32961559795125    3.09512469929858    0.28362598791081
C         1.64560495772007    3.51585638440352    1.31083083711389
C         4.64494473263951    2.54562967421681    0.24429532600430
C         5.54593583055787    2.59547992672039    1.18544685940749
C         4.15014402643813    1.57132032512727   -3.61070811737368
N         5.25220507120662    2.25779467225311   -4.45537602112472
C         4.88156469588721    0.97522890799692   -2.43200542098319
N         4.06457301263074    0.23960854357942   -1.47875491616413
H         3.29438764576544   -1.76868419817026    0.08008655322491
H         1.60497780015880   -1.39516194180058   -0.06530053175959
H         2.38640017086529   -1.67806506997982    1.56134569958926
H         3.55438283052415    0.54036722604881    1.29807508508807
H         1.94193752298609    0.87148208251253    1.08645868356905
H         0.68597998925054    0.61149908037269   -0.95632666351665
H         1.62688902645970    0.06607387405940   -2.37438097566462
H         0.98998053753623    3.03213712896464   -1.64425179993384
H         0.09709389571760    2.11127952101710   -2.80408403603017
H         3.50403934635043    3.59075202187075   -3.92738805440939
H         2.96557234167469    4.30143319011100   -1.76861029457383
H         4.67497055936064    3.80532873006261   -1.90796747172508
H         0.75228658260066    3.81528861049479    1.80995495190671
H         6.49159653139897    2.78154728905049    1.64655354215495
H         3.48201843632352    0.84650807210924   -4.08198803779146
H         6.03439687912443    1.60738606802353   -4.53225435390517
H         4.85672609286565    2.36117576689062   -5.39301920360037
H         5.34627434993359    1.79078589485097   -1.84630231587336
H         5.62138889665321    0.27317749813953   -2.84069062535041
H         3.79040235643080   -0.70168017732468   -1.83137232116143
