37
 energy: -49.855316834985 gnorm: 0.326555419813 xtb: 6.4.1 (79825abcba525fcdf90b791dcacef51065a7a4e7)
C         2.49489153364005   -1.29557967605375    0.48376722236643
C         2.99307306533481    0.13426997783732    0.60780917610118
C         2.91693063911877    0.93672253527514   -0.75752626619137
C         1.25612238185613    1.03478355126486   -1.26760283005348
C         1.04613983850667    1.95168396387599   -2.46153006988711
O         1.98082444008664    1.93798484994836   -3.46822709778518
C         3.15460211434487    2.67820362806239   -3.24281262616113
C         3.35251459339748    3.27550019396028   -1.90089137170336
C         3.35655148129638    2.41484327761755   -0.55571577242783
C         2.37856329600294    3.08313547971390    0.39681794639620
C         1.52032841048383    3.86309860853261    0.99274237811333
C         4.71368511225303    2.42523306449042    0.12874923196790
C         5.74774999881235    2.76792587573157    0.84520420081978
C         4.37271503754205    1.77899463306497   -3.58675176252919
N         5.59569334646365    2.70669073858268   -3.79400386769276
C         4.79518111305647    0.84199963017316   -2.48076622933606
N         3.71817112203874    0.18822440189303   -1.75280559403783
H         3.00138472018461   -1.83590474231068   -0.31335844002248
H         1.42710250804896   -1.24000606826194    0.23654228606536
H         2.60090000699952   -1.73217942545548    1.48649284320342
H         4.05924725556136    0.09519691303511    0.85616215850268
H         2.47934350787942    0.66640349017162    1.41644227374398
H         0.69262579971693    1.37287256891387   -0.40166285788219
H         0.97615578151540   -0.03110530126254   -1.52734260134648
H         0.98123104955001    3.00087754637435   -2.11713272391657
H         0.05060997519665    1.75829282673911   -2.90473648905040
H         3.14847157107355    3.49871279443529   -3.96540347590396
H         2.54027297678382    4.04693537570281   -1.76156413067103
H         4.34016131937991    3.86193306436297   -2.02034318889599
H         0.87237074565540    4.29574772175686    1.72059392872510
H         6.67676875279189    2.88036896935701    1.36075759823317
H         4.24780610293601    1.26667004878318   -4.54371082548711
H         6.36047283305574    2.19621831963365   -4.23592682622314
H         5.32966483867475    3.50812139424557   -4.37124190169890
H         5.51360502446733    1.31783446429106   -1.78680320221443
H         5.33832380036787    0.03323640926271   -2.98883876381407
H         3.22361530799934   -0.45210203655673   -2.40925790637680
