37
 energy: -49.857272221882 gnorm: 0.315477696596 xtb: 6.4.1 (79825abcba525fcdf90b791dcacef51065a7a4e7)
C         2.86794146310719   -1.44492050283252    0.28038229109698
C         3.19837820554422    0.02061324046764    0.50635504150062
C         3.08332609893379    0.90130825536416   -0.80704053840280
C         1.43299915339291    0.74278820880748   -1.33559564305920
C         0.95642468185153    1.81205294676355   -2.30503413117459
O         1.81158907910314    2.06950486408353   -3.34890875965598
C         2.98903207926855    2.80670428487378   -3.13291212220995
C         3.25266001416549    3.33631883954667   -1.71875659126512
C         3.29081946694014    2.41538258432800   -0.41466140516388
C         2.19310741367736    2.88827235845243    0.52438028509493
C         1.32439643438903    3.63774224055929    1.14379260106466
C         4.60674565084948    2.61088283898571    0.32054595979754
C         5.59367589059952    2.62071918149652    1.17254840304082
C         4.21424126520678    1.99578424739858   -3.69384081083841
N         5.16119927157516    2.94619910596066   -4.46794130439142
C         4.94132330078703    1.20045997102125   -2.63627179236527
N         4.06497083108364    0.39903209062179   -1.79542759897888
H         3.36060107178627   -1.92162716845143   -0.56456333542148
H         1.79194414461821   -1.59783866172487    0.12797558049688
H         3.13544367267132   -2.00337823931722    1.18806248405554
H         4.23590433578464    0.09436767731387    0.84991453302675
H         2.59522765551599    0.48841995348561    1.29269969427651
H         0.80000941684079    0.77863737428658   -0.45257613703935
H         1.45382167889149   -0.24211134657910   -1.89372141759271
H         0.74597823706171    2.75865362133642   -1.77278483521349
H         0.02887048928597    1.48929519173035   -2.81531094037973
H         2.96779155347571    3.67994443219318   -3.79049169683162
H         2.55673760472198    4.19360886875923   -1.48422180465050
H         4.25781859609287    3.90484404893737   -1.72607886862453
H         0.60140831850470    4.13350450186706    1.75067826293701
H         6.56780791898470    2.67099814896783    1.60849954852505
H         3.79607258909673    1.32843433961249   -4.45122342790821
H         5.72962072950676    3.44591885855490   -3.78387780593802
H         5.78698445159454    2.28998346391206   -4.94126989035267
H         5.54581003574413    1.93628829302595   -2.07298779955506
H         5.60513884626636    0.49102801829611   -3.14939444097634
H         3.74348179962256   -0.47271967513438   -2.26683687000210
