37
 energy: -49.848293567895 gnorm: 0.327764406243 xtb: 6.4.1 (79825abcba525fcdf90b791dcacef51065a7a4e7)
C         2.80904293155496   -1.46083321667082    0.36967733344320
C         3.10764979478995    0.02565352352657    0.46576265948324
C         2.88288179601287    0.90008131277999   -0.83758841906055
C         1.20620758116535    0.97854147141440   -1.29659355177732
C         1.03060473586156    1.96096116495086   -2.44301253085134
O         2.09158414367135    1.82121901175210   -3.30443966238268
C         3.11423413048884    2.77647950645686   -3.16970309054866
C         3.13411495544804    3.38445555605435   -1.81827136040781
C         3.31150522329054    2.37115829262528   -0.59679464659330
C         2.37841361554499    2.92994441563932    0.46504054042867
C         1.36567367446714    3.40436287931659    1.13535421086455
C         4.70134259808265    2.46537538414222    0.01138885467030
C         5.70657781074241    2.52733768734790    0.83945836905301
C         4.41195710895956    2.04860485667649   -3.57225487440893
N         5.44998397100830    3.13434827972740   -3.95029044984889
C         4.83885782640860    1.10298211317864   -2.47535258871351
N         3.76307053023718    0.32468148346968   -1.88018111806431
H         1.74531379092631   -1.66308012902641    0.26256828308767
H         3.17730525919508   -2.01431606540399    1.24284489602642
H         3.31867789626470   -1.87331880997363   -0.51205031516246
H         4.14811492366066    0.14981981709503    0.78505619097216
H         2.43928360957316    0.48717992211748    1.20146072634172
H         0.61842219320660    1.18707139236978   -0.40625191675635
H         1.01770402946526   -0.08181131723545   -1.64599799738085
H         0.75809771710727    3.00585023825006   -2.20306127426175
H         0.12482103309056    1.62070254742390   -2.98031293810074
H         3.01996447784246    3.55277314657797   -3.93383123993862
H         2.21082242865748    4.01591297307308   -1.66643854999404
H         4.00035738802212    4.13079016893912   -1.65632383038463
H         0.54866887247611    3.80461520316645    1.69132498152274
H         6.73080879488473    2.55802900563519    1.14198693109705
H         4.22147941023309    1.50591673728184   -4.50126360478157
H         5.64229995897249    3.64307893673742   -3.08717207194199
H         6.27504029762363    2.56220835596951   -4.14574882456334
H         5.39751646765332    1.69822468119077   -1.72854391402603
H         5.52832248754941    0.35827051167182   -2.89640215602760
H         3.14731718308592   -0.21968734380542   -2.52052745768251
