37
 energy: -49.855219348153 gnorm: 0.309697604169 xtb: 6.4.1 (79825abcba525fcdf90b791dcacef51065a7a4e7)
C         2.58443613821936   -1.23766706825325    0.47815584557769
C         3.15577472308499    0.16988647159007    0.49831847145063
C         2.92090697215135    0.95937837533192   -0.85645395207406
C         1.24610068847076    0.89288354135714   -1.32408680008099
C         1.04362077391877    1.95353046905539   -2.39380230815726
O         2.04451689563692    1.90103489378088   -3.33333040474607
C         3.19043004293265    2.71020098365497   -3.24047110289106
C         3.46571666345659    3.37207070579922   -1.84445473161204
C         3.36017785503159    2.43727237800724   -0.55400609772152
C         2.34223124981267    3.01797813872721    0.41396152220910
C         1.36752601762877    3.48102083013367    1.14579261662618
C         4.64159375367807    2.46043218984933    0.26321417168266
C         5.50055670156865    2.89997642571367    1.14015192370123
C         4.36290248236240    1.81861508325091   -3.66621940823311
N         5.57248176267554    2.76356051839652   -3.87417501076346
C         4.79849340203103    0.87035438997357   -2.57502582854281
N         3.68737820405712    0.22697816201796   -1.89034392970761
H         2.82922500448181   -1.73323031210876   -0.45906948975093
H         1.48868199309100   -1.24404977705650    0.53868775988868
H         3.02548816265053   -1.76059925705475    1.33799934642519
H         4.22994861349359    0.11769674315709    0.70654910701696
H         2.68173417405953    0.78787546650134    1.26925736645286
H         0.61086183524817    1.06076346659425   -0.45807724618977
H         1.04631973396093   -0.14589296417717   -1.72781447294502
H         0.97373217482151    2.98302586196111   -1.99519890114857
H         0.10019628433114    1.70320771971595   -2.91553070904395
H         3.11370270496825    3.57612771968238   -3.90356552696555
H         2.80197779714502    4.27996795444068   -1.74732562363787
H         4.52889110953976    3.81452193062573   -1.93114564539258
H         0.75003277348566    4.11589685451481    1.73945645982343
H         6.43544918521099    2.61387483265285    1.57100754759236
H         4.02337555210336    1.36319682830029   -4.59958163506401
H         6.33556554033918    2.20163868193305   -4.25194829313033
H         5.25886496553259    3.37545611586393   -4.63146907058970
H         5.40123809731233    1.41869780679599   -1.82659098273515
H         5.46565264927760    0.07807473347102   -2.94167431317967
H         3.04960315992453   -0.03030107214887   -2.67302102029699
