37
 energy: -49.858132483226 gnorm: 0.320029819077 xtb: 6.4.1 (79825abcba525fcdf90b791dcacef51065a7a4e7)
C         2.88727640476982   -1.49150369612594    0.29469558962444
C         3.18518689975212   -0.01095871361691    0.45985360240904
C         3.03922122592276    0.87171333277039   -0.84913559787076
C         1.39511511074375    0.79091599444891   -1.41346263359974
C         0.98796039385469    1.92775489826415   -2.33654639595128
O         1.84964610819774    2.16380967269812   -3.38011611053821
C         3.06162414924030    2.84334742633260   -3.16604317565939
C         3.34935320333746    3.34301350914111   -1.72613698109074
C         3.27580811130884    2.32893052038907   -0.49468628597223
C         2.19611809145111    2.85042272148119    0.43950383496504
C         1.37774205914112    3.58502399316790    1.13997306977835
C         4.53308647120859    2.47415213490464    0.34708196625729
C         5.47368582359464    2.98456424364697    1.09192328181769
C         4.22444813132801    1.97277761354520   -3.63515318454685
N         5.37413082595855    2.82138954697142   -4.23292984140930
C         4.85143770449604    1.14082973859024   -2.54227257417825
N         3.87482277016248    0.26609116202979   -1.91111890898563
H         1.84392000379930   -1.63373833548711    0.02070184011681
H         3.08997254540658   -2.01257977219948    1.23903450953989
H         3.56844507135591   -1.90847112594343   -0.45993227785995
H         4.24924401566948    0.06707212544192    0.70810137045904
H         2.58890960926209    0.44995298600747    1.25545740940048
H         0.82495581542033    0.89548300854434   -0.49386014621577
H         1.25969995953276   -0.18043426816850   -1.97924218086742
H         0.69302235779091    2.79590095394149   -1.71770567559392
H         0.05991180905758    1.67823579738467   -2.88552527819394
H         3.08888806321295    3.72977992113119   -3.80549960337186
H         2.57488704350903    4.12722401230825   -1.48225828482641
H         4.39027367586470    3.83957613466429   -1.78553758860491
H         0.75595660922980    3.85867288395151    1.96174031639525
H         6.43064667376116    3.17040461043150    1.52919195278256
H         3.88604918004241    1.31742648697934   -4.44128618874406
H         5.85156771877244    3.24308115911171   -3.43606357124429
H         6.01750892909093    2.15329606654894   -4.66418583095929
H         5.31362286182551    1.81886713353845   -1.80012261612592
H         5.66660165692667    0.48575557822261   -2.87935594905899
H         3.24169590486224   -0.12470477062995   -2.64047612653405
