37
 energy: -49.855632910158 gnorm: 0.319150286202 xtb: 6.4.1 (79825abcba525fcdf90b791dcacef51065a7a4e7)
C         2.66365840869383   -1.37333070500484    0.42869573881906
C         2.84673328315001    0.13029268558445    0.54549285823339
C         2.98889837594870    0.92553002600757   -0.81878545088161
C         1.51820629042950    0.83062531161688   -1.74406163448945
C         1.13110040685040    2.15229648923329   -2.38717563859699
O         1.97986701182835    2.52908495784346   -3.39954295153151
C         3.29856552753621    2.91804992102663   -3.10589344251533
C         3.51500950021406    3.44736003056702   -1.61685172379396
C         3.32891349075272    2.39772657356976   -0.42778406424021
C         2.19775614438452    2.97666183826446    0.40630996467404
C         1.42763925375840    3.77756545969264    1.08859207286625
C         4.56352015504445    2.46538421060208    0.45628651549586
C         5.59166969947186    2.86959008775277    1.14879094972582
C         4.17284240159490    1.73134888394247   -3.50241588686754
N         5.09097603618236    2.14955359246424   -4.67773920160910
C         4.95567309929089    1.06929594465790   -2.39403724021771
N         4.13509070031518    0.27412476459773   -1.49312293947546
H         3.52509825866154   -1.85065179219234   -0.03388594205319
H         1.87839259093373   -1.64707568965520   -0.28740710086301
H         2.41098115925612   -1.86513245306521    1.37822249277805
H         3.75760243553522    0.33918401141568    1.11699536335986
H         2.03051886326166    0.56582289833499    1.13292717310051
H         0.79580836268833    0.42157773560838   -1.04227396584198
H         1.62884325526699    0.07393719605557   -2.57901531571488
H         0.99878785438786    2.87525375543722   -1.56046163966556
H         0.11188122889993    2.06628156932905   -2.80991133791867
H         3.55351370574666    3.76140413505652   -3.75332336760033
H         2.78184830370309    4.29796566445105   -1.50193663995612
H         4.59058829604667    3.86775579264461   -1.61285664108342
H         0.59427135441590    4.21208201685322    1.59207550711078
H         6.50434678751401    2.92737085287079    1.70123687813667
H         3.51779626757474    0.95347639490342   -3.90201358816351
H         5.72503752595932    1.39112716817604   -4.92977301088063
H         4.51174275633000    2.47680120329888   -5.45469725672373
H         5.47829879909309    1.83533357066048   -1.79055971594114
H         5.74974017613643    0.39449103534091   -2.74236960791594
H         3.72262094596553   -0.58696844553125   -1.91016037732392
