37
 energy: -49.858325628140 gnorm: 0.326045639454 xtb: 6.4.1 (79825abcba525fcdf90b791dcacef51065a7a4e7)
C         2.68231416943368   -1.31918602928412    0.50538063588837
C         2.80227744007698    0.19199139721819    0.60534501410052
C         2.96770185003330    0.95948902610136   -0.77213485882869
C         1.44704974648230    0.82103681578998   -1.60671636880638
C         1.04387409962053    2.05368802196777   -2.39935859009153
O         1.83737366346207    2.31777888532024   -3.48925598630132
C         3.11657092685062    2.81598613686796   -3.18605069620854
C         3.30343683853443    3.38144010398421   -1.77830970775927
C         3.27558488034503    2.41463952983677   -0.50757569653377
C         2.18447365126993    3.05849928739027    0.33225567373543
C         1.46402525483056    3.60280389307671    1.27285233766369
C         4.62424090561585    2.47484585317009    0.19093273193123
C         5.77122613504724    2.41364138764381    0.80795392650907
C         4.29689067864174    1.81612182310543   -3.55319361182852
N         5.46350532596280    2.66507578524938   -4.11669771847906
C         4.92219415533390    1.03363535707362   -2.42343624292121
N         4.00974074852952    0.28080654923615   -1.57610111265594
H         3.61264044785966   -1.70643279076609    0.09497984606521
H         1.95756338756292   -1.60918102270909   -0.26599554092905
H         2.41548483323800   -1.77188988512564    1.47035583378032
H         3.65138821454737    0.43360296942033    1.25385719829379
H         1.90035571795078    0.62210357485352    1.05535872677858
H         0.74128764156460    0.71283704339790   -0.78703516375986
H         1.52107666779642   -0.05971715019325   -2.31435862193600
H         0.91950692320686    2.91949065261284   -1.72219652190589
H         0.04115417732712    1.85195085804546   -2.82216663734248
H         3.34042149655194    3.62343401498347   -3.88842471222146
H         2.52308485315099    4.17402835781650   -1.58565612986486
H         4.29660468292777    3.97062811882921   -1.76864430154815
H         0.73555160578367    4.10836116444837    1.86491674089375
H         6.76350117657024    2.40158450694608    1.20388250166736
H         3.88776750370716    1.12768658038610   -4.29651353898614
H         6.18233315459818    2.00036886388335   -4.40343264200030
H         5.23785681629785    3.11319016994218   -5.00806871812875
H         5.50654961207994    1.68851542060471   -1.74979153578506
H         5.62268410277990    0.28098352598339   -2.81082323454069
H         3.61109281254368   -0.55400231828366   -2.05537871200252
