37
 energy: -49.854424317225 gnorm: 0.319826024246 xtb: 6.4.1 (79825abcba525fcdf90b791dcacef51065a7a4e7)
C         2.44631878823965   -1.22762541527410    0.56442298696606
C         2.84249294741003    0.23870254460807    0.53328414856973
C         2.86440580107751    0.96832357705378   -0.87421065494932
C         1.21474744775652    1.00870643096112   -1.42654630815376
C         1.02195800970500    1.97218889813903   -2.58619929818776
O         2.03908576871174    1.86925940064080   -3.50386945493886
C         3.22044328491827    2.59100917995883   -3.25899963839887
C         3.34440680450304    3.35561300759680   -1.90581603380746
C         3.32860443180197    2.46247310420130   -0.58207308384470
C         2.41486448537702    2.98953131675375    0.51231478543327
C         1.74357892814562    3.62553338168546    1.43150603920235
C         4.73193916914649    2.49201195443752    0.00118591039911
C         5.76858148414981    2.87210693795292    0.69468199144859
C         4.43429958112606    1.73289127982683   -3.54847196644862
N         5.55152335673505    2.77583161982258   -3.80013826498581
C         4.83718836297529    0.84771840405774   -2.39357334338561
N         3.70882215006191    0.16054351727244   -1.78375400865330
H         3.10011351696916   -1.82256575029381   -0.07000139572002
H         1.42029314361591   -1.41167557414925    0.22123366051966
H         2.60182147259248   -1.63938673402864    1.57119373536474
H         3.80895018684258    0.37838698724267    1.02965293588912
H         2.13083277037130    0.79024429518615    1.15803458640680
H         0.54767886222575    1.20373735789637   -0.59068324692617
H         1.00565603474808   -0.04570287448777   -1.78216814336442
H         0.83780897058220    3.00884071495761   -2.24697665969345
H         0.12314090519044    1.61618974230939   -3.12499813297904
H         3.22569689419775    3.39262823028691   -4.00249792995019
H         2.64949620133136    4.22197869476901   -1.70389893660261
H         4.39756743343213    3.82811328481949   -1.94066550114697
H         1.25320073771023    4.19093890073392    2.19087953634265
H         6.61213558258270    2.99464644518052    1.33882107295823
H         4.18051243155473    1.12316594731854   -4.41891809999552
H         6.36550957858472    2.23228878061919   -4.08780694157210
H         5.33596015459243    3.36517306994104   -4.60789761761095
H         5.28792477197940    1.40104761907339   -1.54811497167105
H         5.45750667088762    0.01970545196276   -2.76349140813281
H         3.12804616290963   -0.32513070908666   -2.49954227203181
