37
 energy: -49.856183771493 gnorm: 0.322980036874 xtb: 6.4.1 (79825abcba525fcdf90b791dcacef51065a7a4e7)
C         2.57176362415173   -1.27836656317244    0.42436405044214
C         2.91635546281391    0.18991163486822    0.60727625713178
C         2.93105412841736    0.96394246979221   -0.77638875351716
C         1.28843809378776    0.99931837235362   -1.34965940458765
C         1.06133819854734    1.99528084973628   -2.47515737005217
O         1.98865549115956    1.96428782020757   -3.48826345877067
C         3.15851640045444    2.70800067355774   -3.25415622539971
C         3.33926504315890    3.38300722084046   -1.88652267403198
C         3.32495725236790    2.44589013716479   -0.59352195226945
C         2.32673313313939    3.05228350649217    0.37922238935771
C         1.70864650237810    3.68013694578030    1.34036987308962
C         4.62202656983149    2.71036078145832    0.15352455515712
C         5.69435315341565    2.67095073703040    0.89419910320383
C         4.35839487307283    1.77886504572435   -3.55680556709134
N         5.56943115394937    2.66840064864960   -3.93279357338258
C         4.81927782710706    0.84480422546974   -2.46375547368568
N         3.76380654672662    0.17856867319168   -1.71581842990364
H         3.15375396535102   -1.69330416399134   -0.39600774151388
H         1.50024186269478   -1.30443642910019    0.18868741820991
H         2.66652700716417   -1.79143359433118    1.39136866834201
H         3.89686556127996    0.27781993075495    1.08769835324525
H         2.20912670532711    0.75018556075707    1.22928287467852
H         0.65807810234978    1.18235320376633   -0.48315542366774
H         1.03506928515739    0.00158958986859   -1.82115342934924
H         0.92034000617112    3.01175335938600   -2.06220095206720
H         0.10101022940032    1.72776368037782   -2.95590317229998
H         3.07661960025485    3.56097079655832   -3.93323302162848
H         2.59056611701755    4.21745672267397   -1.75459575620458
H         4.42181628790847    3.77726301694950   -1.96566481849287
H         0.90457154802690    4.10509698295341    1.89685411805375
H         6.68916254405447    2.76028881480126    1.27352429705092
H         4.08852665282566    1.24702836107903   -4.47232195379158
H         6.39393964546365    2.06777637903079   -3.91858480648980
H         5.41249363762241    2.89670851284804   -4.91743165197118
H         5.44704803078508    1.43233078663513   -1.76744124856406
H         5.39778677381486    0.03154535585303   -2.92329550032941
H         3.13115431684217   -0.44934424831527   -2.25527144762519
