37
 energy: -49.856264765854 gnorm: 0.326601569394 xtb: 6.4.1 (79825abcba525fcdf90b791dcacef51065a7a4e7)
C         2.92683963729179   -1.45249984798575    0.26501800533894
C         3.07734377530761    0.04494373630424    0.47250895421772
C         3.00606406971829    0.90136075783321   -0.85990904882760
C         1.40371898296728    0.80808454780414   -1.53212025292201
C         1.00673032924980    1.97191593504384   -2.42551702933751
O         1.84030042984380    2.28732291972296   -3.47095530946642
C         3.07507306181414    2.88446178240532   -3.16232725161857
C         3.19256363546701    3.43312888176860   -1.69052031964404
C         3.27528089760724    2.36157797394702   -0.50934271775201
C         2.25876933528586    2.82100160958719    0.52314455774190
C         1.46818428149491    3.33151173019201    1.42558027721698
C         4.63087642629445    2.46651245285504    0.17018766071928
C         5.55180931723713    2.70494533032119    1.06185388039933
C         4.23275640745605    1.96042726613395   -3.56743508330990
N         5.25656275698723    2.77195748729807   -4.39959414393710
C         4.88622386028540    1.22142143282407   -2.42441632296699
N         3.97449293560222    0.28004578474923   -1.79207316720172
H         1.94997805280644   -1.69560018283810   -0.14794630163900
H         3.01392179708718   -1.90679705387425    1.26021283267488
H         3.73906613885622   -1.82343584388477   -0.37530254359679
H         4.07194259828422    0.26114348432656    0.87743383918607
H         2.36064173197404    0.44297639660313    1.19975018117748
H         0.71050488905994    0.68506808331297   -0.70386558989233
H         1.47969320374998   -0.04454859483694   -2.27320711282011
H         0.76043680396654    2.84738701951239   -1.79581889846297
H         0.03205880996138    1.69761113471012   -2.87237727222082
H         3.17883564778459    3.78159412042876   -3.77860422313396
H         2.34131992032464    4.15914497184307   -1.54036861023769
H         4.12142519167296    4.10653926638983   -1.55878964113368
H         0.75592596926349    3.74403936311922    2.10330536425943
H         6.44690263332792    2.61536922466420    1.63830743405573
H         3.84357390425912    1.21301865644836   -4.26296848952777
H         5.65023149655585    3.54708018994652   -3.86576329598761
H         5.94985156606022    2.08455151143566   -4.70470012922842
H         5.28056931138019    1.96532119985037   -1.70661329239518
H         5.77266167081959    0.66794319479944   -2.76372366840586
H         3.57336764492442   -0.49043082848039   -2.36739684046620
