37
 energy: -49.856092023010 gnorm: 0.321869355161 xtb: 6.4.1 (79825abcba525fcdf90b791dcacef51065a7a4e7)
C         2.41141346226351   -1.31394794784511    0.41257127282013
C         2.71769610825766    0.16404364812040    0.58511999152529
C         3.01106549354920    0.91817260584292   -0.77836545559712
C         1.49797871461365    0.87917408416786   -1.63692567213692
C         1.09972289490351    2.12023624575002   -2.41885808731298
O         1.92167927221482    2.47375198203692   -3.46129571800822
C         3.24502055713610    2.83270352869354   -3.15079421597186
C         3.57768286273827    3.36574700602013   -1.77527823460197
C         3.34040400425518    2.40580968683288   -0.52129931986441
C         2.29240868472236    3.05242291039923    0.36976355300455
C         1.71653757887938    3.80343153199961    1.26664374730130
C         4.54524498142321    2.61132695895036    0.38232280968559
C         5.67099802056906    2.87187991130645    0.98633315906510
C         4.21031731491745    1.63294825896399   -3.48538481359805
N         5.22965664864756    2.19351333466887   -4.50810841356526
C         4.97523680304193    1.00229426811397   -2.34660698610450
N         4.11162012745244    0.21673515763494   -1.47806661413105
H         3.20322011112838   -1.95533954061636    0.03105469083262
H         1.55266845041065   -1.58137116391256   -0.21625606932159
H         2.12292066438791   -1.74191305355234    1.38258858302157
H         3.55488099753606    0.32195573420228    1.27368265842699
H         1.83921344522844    0.63043048850142    1.04525382586402
H         0.70063254244413    0.77407180616827   -0.90557267251929
H         1.52129760483931   -0.01363000343936   -2.33285827113780
H         0.93664380517137    2.98508017304421   -1.74872373654108
H         0.10647655566469    1.86746718803855   -2.83656765575648
H         3.50157227390842    3.61495666573977   -3.87028824512101
H         2.97792338856445    4.29821296453558   -1.56301288253863
H         4.68627471674972    3.68636442403958   -1.73230281789650
H         1.00900772899345    4.37076200997645    1.82730401239768
H         6.51281096175005    2.83931321883294    1.64345189586575
H         3.54672070923257    0.92515297384969   -3.98789327026409
H         5.77687314335412    1.43169071351016   -4.90928924149147
H         4.83211840249099    2.69250764583026   -5.30762953958487
H         5.57771142004217    1.79989864107044   -1.87227799811131
H         5.73610158881036    0.31900649991352   -2.74840572934051
H         3.66704080375734   -0.56984261916200   -1.99688996099966
