37
 energy: -49.854701324146 gnorm: 0.324937153483 xtb: 6.4.1 (79825abcba525fcdf90b791dcacef51065a7a4e7)
C         2.73671317492549   -1.38896771527343    0.26463899170621
C         2.77895253445767    0.10541857248293    0.53494758739500
C         3.05772308444972    0.90889382329217   -0.80317914337648
C         1.72893297469165    0.65772026730452   -1.89830782072152
C         1.02592704599329    1.90400864086490   -2.41095706052286
O         1.68701392304433    2.60619591942927   -3.38930211355930
C         3.02434724661251    2.92712497343836   -3.09769677068372
C         3.32550459389773    3.41889119611858   -1.66334330852365
C         3.25306403032255    2.37783887272575   -0.45453959009957
C         2.20586381532424    2.90925423298496    0.51053308475421
C         1.60307126695541    3.62867325399545    1.41558166545213
C         4.49175474251937    2.49104809396755    0.41909706995148
C         5.67187142307075    2.82014749641557    0.86525222778010
C         4.05326304301667    1.78122463282727   -3.54628027639461
N         5.04008237486982    2.46304207809103   -4.52636293666345
C         4.91404587781307    1.15863281026394   -2.47339931667387
N         4.28851442944715    0.36810422636083   -1.42407847850058
H         3.72131898409032   -1.71208948625595   -0.06708313376376
H         2.09338472745064   -1.68679016932358   -0.57310338675870
H         2.39670506979723   -1.93887944620951    1.15306872155153
H         3.54478937185301    0.42464501075658    1.25015506196816
H         1.79624904404756    0.48236307086173    0.84019881962958
H         1.01111653921725    0.03851064171806   -1.36632697352985
H         2.07741020261777    0.02411880885646   -2.76955859138396
H         0.82674348675634    2.56681043856568   -1.54802627364217
H         0.02012337292313    1.61990851055606   -2.77504202003594
H         3.20757650869668    3.79295202127713   -3.73970998903193
H         2.70078568702366    4.32035854652140   -1.39624095218949
H         4.39553551699480    3.85191894229375   -1.62959268716308
H         1.22116111933167    4.18911256182980    2.23829345352033
H         6.61820681289270    3.03973063619539    1.30993997679603
H         3.46237501086185    1.00759381553407   -4.04246175704519
H         5.61412387491330    3.03473144295881   -3.90635222609635
H         5.70803555503107    1.74152392309761   -4.80834895017892
H         5.54566845529492    1.91005761535643   -1.96295826159045
H         5.65082084947083    0.49250010775099   -2.94315402957965
H         4.05626745073832   -0.56717057497665   -1.82012825590479
