37
 energy: -49.854520385600 gnorm: 0.327079994101 xtb: 6.4.1 (79825abcba525fcdf90b791dcacef51065a7a4e7)
C         2.27050585046695   -1.22151219066393    0.43041647582776
C         2.89143820799760    0.15657529089111    0.58325357238981
C         3.04362174966665    0.95971197436951   -0.77530459098944
C         1.45888576379653    0.95911679964131   -1.49411585416591
C         1.08502981899996    2.08949537459206   -2.43896361913801
O         1.94370286151134    2.39930996593289   -3.46558789372088
C         3.25841892662625    2.77178505716640   -3.13502242878641
C         3.47821023903437    3.38136416061707   -1.80783013988231
C         3.37796822692043    2.42421551128367   -0.53344321506732
C         2.29631084867588    2.95776796164521    0.39161620512605
C         1.46496370990438    3.49893957026002    1.23780222628072
C         4.64429253608416    2.61965685588044    0.28425933104581
C         5.62118249826647    2.84326732444614    1.11835803392780
C         4.30790817168736    1.70202764098754   -3.58824226707089
N         5.36672161289187    2.46799896861922   -4.41977787384496
C         4.92498307942668    0.89470804250998   -2.47150825927559
N         4.06892337943391    0.19729913606855   -1.52383644706519
H         2.81556451790499   -1.78975724268676   -0.32051924497862
H         1.25101116393919   -1.18045138657560    0.02627962686698
H         2.42279669851599   -1.78144516731021    1.36347508467563
H         3.86452257719080    0.04352814211543    1.07341728457886
H         2.30530846294904    0.71932231578868    1.31860337193837
H         0.71934988393165    0.98118024728070   -0.69769605029261
H         1.41698668295414   -0.06114808126590   -1.98326729476384
H         0.87404237404105    2.95773281310227   -1.78683027021717
H         0.12440535344349    1.77370752415878   -2.88884186971300
H         3.44447019319728    3.57415847893545   -3.85404414615010
H         2.78376019700967    4.26254682064548   -1.68326280155998
H         4.54067166205181    3.83294217870867   -1.83734836776660
H         0.73790603092590    3.96402002656903    1.86381305401807
H         6.58582703243557    3.16171036799083    1.44937098945465
H         3.68074824719744    1.06968819622599   -4.22122459343126
H         6.21815591288187    1.92028161792994   -4.54559914170623
H         5.00574725159816    2.57958415385871   -5.37031049696558
H         5.53687160005889    1.57500052116814   -1.84947050265955
H         5.56620597149541    0.08418956822404   -2.84451312799255
H         3.61374769024937   -0.65916074439578   -1.90439472707036
