37
 energy: -49.852432365848 gnorm: 0.317570338727 xtb: 6.4.1 (79825abcba525fcdf90b791dcacef51065a7a4e7)
C         2.76145354681778   -1.49137139783064    0.28737589567902
C         2.92327780723557    0.00588461268950    0.48757236219272
C         2.92549891527297    0.88238085479519   -0.83364603391719
C         1.35009599942200    0.76451942433861   -1.56322979688241
C         1.02343947013816    1.97817930206780   -2.41797332697375
O         1.92403223000492    2.19122910955720   -3.43325867431361
C         3.14325389760370    2.83243167190934   -3.15246096891458
C         3.33830006706164    3.38012896701985   -1.75151951429624
C         3.21487376021918    2.37809441924978   -0.51420922692971
C         2.13229291179180    2.94711243808567    0.38836103823800
C         1.70328697233823    3.47347150909988    1.50143589313184
C         4.44417459359428    2.58947688724181    0.35443857529563
C         5.60408340173921    2.89391532466755    0.86626377937926
C         4.31884861717947    1.89775152178600   -3.58022752311833
N         5.36902952718255    2.81268550980505   -4.25791867488629
C         4.85639508197494    1.07021180401075   -2.43748388008302
N         3.87870758093354    0.23120291895041   -1.76110344165202
H         3.62679503943809   -1.80118041461089   -0.29494559726688
H         1.87866955750445   -1.82276948794318   -0.27409514742576
H         2.80725346305104   -1.96002130650993    1.28014245385767
H         3.89812482298086    0.16755878923871    0.96029645580457
H         2.15715746788693    0.42065802699320    1.15239885096145
H         0.76776857288880    0.65102825223389   -0.65235157258546
H         1.30712849557629   -0.17149198134376   -2.19884094693812
H         0.92891235485088    2.82358364875168   -1.71087646555709
H         0.01845639101412    1.83878579255534   -2.86011609896329
H         3.22157860309424    3.71587507606609   -3.79183832537406
H         2.74586233139127    4.33673776898921   -1.66108778395326
H         4.39233384699949    3.85062110457614   -1.71590697966190
H         1.10579959625444    4.07475892912491    2.14816965844009
H         6.44004304526584    3.03444592550833    1.51660006222331
H         3.86772673483080    1.21540662441584   -4.30461958413805
H         5.98132029906766    3.15251012693057   -3.51603937530339
H         5.87775140386461    2.44623338365362   -5.06611475388567
H         5.37777836697075    1.66259266605226   -1.66199643772200
H         5.64589177337859    0.44783483132236   -2.88085900870496
H         3.35278502367263   -0.24298206287702   -2.52535935830133
