37
 energy: -49.853490614435 gnorm: 0.317339630173 xtb: 6.4.1 (79825abcba525fcdf90b791dcacef51065a7a4e7)
C         2.85055282273779   -1.37151147145949    0.28555689296297
C         2.93811285297750    0.12059063705260    0.55759699314430
C         2.85477687024704    0.89223433049899   -0.82496937766779
C         1.18254206530683    1.00440658510371   -1.29307863079193
C         1.04578858986548    1.92351866995601   -2.49590561375169
O         2.01087040623822    1.98320735603961   -3.47177252279758
C         3.18590828862495    2.69847826453912   -3.18166382880270
C         3.38547195744596    3.32647441438388   -1.80545334076410
C         3.26048044145732    2.36286851525824   -0.53813932808696
C         2.26370279884129    3.09407127101925    0.34626593858274
C         1.66994192424678    3.65042830820694    1.36506442689799
C         4.58554498143403    2.43771186810746    0.20281570568507
C         5.52097373606378    2.88575091214535    0.99292349318048
C         4.43521970097827    1.79072059395973   -3.57304789414469
N         5.60867015563679    2.74684251521924   -3.90182493927992
C         4.82771594378343    0.86233988899210   -2.44890502698784
N         3.64439809966588    0.22848777708594   -1.88739845003388
H         3.36400812618545   -1.52497773130867   -0.66138957080945
H         1.80142051810987   -1.68730291210265    0.22247621849567
H         3.26540556821722   -2.00336939765184    1.08303326806936
H         3.88937075640623    0.37297926043853    1.03857692608117
H         2.16541173831891    0.45170872375193    1.26063711972658
H         0.59593542761599    1.37142682069096   -0.45470316819516
H         0.76652993613654   -0.03108978357326   -1.48451078718577
H         0.85314494276976    2.89207607137782   -1.99749329298076
H         0.08917851690425    1.71644015817604   -3.01255581327188
H         3.23237063753471    3.52314769486746   -3.89802406819182
H         2.62811337346595    4.14334249010971   -1.62270957113452
H         4.43690287610736    3.80077494532744   -1.74932549989355
H         0.92782896809298    4.24847715106199    1.84298512794565
H         6.47052631242276    3.12512842820588    1.42019726106118
H         4.09155918546762    1.20759897224212   -4.43078677868772
H         6.40121231341033    2.21402001372383   -4.26063235966371
H         5.30058314452109    3.38034157303639   -4.64346322577816
H         5.37585740028710    1.48009680293775   -1.71266204563450
H         5.54207006915758    0.13646761915286   -2.86127289405561
H         3.03260799846435   -0.13286682057518   -2.64941470049128
