37
 energy: -49.855058588079 gnorm: 0.322664342416 xtb: 6.4.1 (79825abcba525fcdf90b791dcacef51065a7a4e7)
C         2.68889169670745   -1.27739278732832    0.51927889613606
C         2.73161801910262    0.24026993163991    0.57327528805804
C         3.00522351409283    0.95589845018965   -0.81484736592488
C         1.53891236048622    0.91398829300343   -1.75093137428883
C         1.11414069651660    2.14728093605513   -2.53120028895548
O         1.98993115462471    2.66580582302849   -3.45390549169748
C         3.33189004493201    2.90355747766193   -3.10878226804862
C         3.47347416555170    3.45556318938589   -1.68495735678729
C         3.28828187647962    2.44923979334024   -0.45888188889318
C         2.17029989573460    2.96939182370002    0.42991165857066
C         1.41890974693461    3.68353160639616    1.22076735204043
C         4.58196201730829    2.56297643701447    0.33097103826603
C         5.59891221811058    2.52823964069454    1.14622676753815
C         4.19270910372661    1.68185949908911   -3.46927868078560
N         5.16550982686808    2.17536644358696   -4.56898732045647
C         4.98638272461745    0.94650352261295   -2.41619986540343
N         4.12557968170289    0.24696257419857   -1.47441441254807
H         3.52103835966606   -1.71783143798262   -0.02610314721312
H         1.79001354117337   -1.56573876882834   -0.04041446154624
H         2.67791467343922   -1.65081896687161    1.55259791834917
H         3.57757518808740    0.51665426204438    1.21194694259246
H         1.81180049707376    0.64169163951576    1.01346610845163
H         0.72764003895685    0.78560604634776   -1.03886407663090
H         1.66932817639901    0.03245334352687   -2.44939607620507
H         0.74282432505203    2.89069614651273   -1.80107164723037
H         0.19226567643662    1.87694245417699   -3.08072310304296
H         3.58264380192377    3.76710599458400   -3.73072834615313
H         2.90124039669358    4.41125179005440   -1.50201317495029
H         4.59203948208220    3.72189798212285   -1.57773926011625
H         0.69445922543441    4.27084682959665    1.73752118501917
H         6.56862300412950    2.54908299445968    1.59426822203794
H         3.47793024454383    0.95939905870492   -3.87051609719973
H         5.64749825436674    1.35154276118868   -4.92921967737855
H         4.63602565081464    2.47540024780169   -5.39111397391888
H         5.67707777866317    1.59090418670803   -1.84015775297430
H         5.60096045222852    0.12778530339132   -2.81524161861730
H         3.74682119041738   -0.59408389058250   -1.95888927125204
