37
 energy: -49.852034892963 gnorm: 0.323150542425 xtb: 6.4.1 (79825abcba525fcdf90b791dcacef51065a7a4e7)
C         2.72700494514552   -1.23263541194280    0.41188375701529
C         2.63623384205023    0.27633440740290    0.56292007295767
C         3.06032285040037    1.00784911618427   -0.77831196882813
C         1.64194989794730    0.89866823519312   -1.78049749773228
C         1.14902836435422    2.24278821721392   -2.29101794289423
O         1.85564429488956    2.63643202168296   -3.40142343554303
C         3.20818580597608    2.92212925964320   -3.14549746752610
C         3.56332286554836    3.46221476279135   -1.78194510701994
C         3.37693055585167    2.52794381080298   -0.50029005630446
C         2.26162257778725    2.96222511604040    0.43666438556038
C         1.34269010130845    3.65124213124004    1.05379820160625
C         4.61004812049170    2.54179200171764    0.38832753952886
C         5.66469585315389    2.31770645796226    1.12149877480202
C         4.11050633514078    1.67162290521874   -3.45772418215500
N         5.06934782436128    2.07859423441655   -4.60413020933549
C         4.93989570021474    1.05649907211255   -2.35619017399440
N         4.21922532327408    0.28719960045689   -1.35313893542569
H         3.76675449963846   -1.54816002041533    0.46898833017702
H         2.28866600130377   -1.63987714592930   -0.50811360091914
H         2.19851182989915   -1.72097949900474    1.24226372309389
H         3.31488981396795    0.60782472524258    1.35631376662476
H         1.61627035198567    0.65843638386562    0.68393320576409
H         0.88687963683275    0.38915764763268   -1.18724166815110
H         1.87231572719076    0.21950113946808   -2.65664173978851
H         1.11454343677180    3.00574868644753   -1.49081048945201
H         0.13123264964235    2.09217043397597   -2.69883890505425
H         3.47239961944511    3.66741805813477   -3.90057764831108
H         2.93652034197879    4.38195214489563   -1.59363021508105
H         4.68315095810462    3.70720030555099   -1.92189303240192
H         0.58104431285192    4.22442945151227    1.53145311592451
H         6.34017136634214    2.28296038545241    1.94856595638758
H         3.46928345146219    0.87121255423214   -3.83458735795913
H         5.64873683482420    1.26591534973938   -4.81538138650096
H         4.46298938062975    2.30364011083651   -5.39656304681826
H         5.57751215367593    1.82090896792671   -1.87322106696086
H         5.65880593930753    0.34707468167476   -2.78876933319286
H         3.84803288506396   -0.61709491563935   -1.71369495238587
