37
 energy: -49.853355853953 gnorm: 0.315399204279 xtb: 6.4.1 (79825abcba525fcdf90b791dcacef51065a7a4e7)
C         2.41518372850655   -1.21081306220322    0.51431593818479
C         2.74598346725660    0.27081842051942    0.57246195904239
C         3.01915218428998    0.95452967024805   -0.83174116905533
C         1.49870251434922    0.78899661121371   -1.66174703573624
C         1.10909812394812    2.11485502622820   -2.29465237734041
O         1.91229994348235    2.46180413692412   -3.35378174988251
C         3.26382868856331    2.79358724888882   -3.15433358646295
C         3.55246587757210    3.36149212113304   -1.73030937843738
C         3.30043278379594    2.42127687789609   -0.46432414250272
C         2.14367213946419    3.03373015987394    0.30846405902414
C         1.54317973967978    3.78132776073216    1.19194705756620
C         4.50057813837264    2.42858674483831    0.46841894335355
C         5.68865271780896    2.77849795859622    0.87594463999431
C         4.25861206337423    1.69666330946685   -3.60436634201571
N         5.33331866514988    2.29791538797704   -4.54391469177055
C         4.91556562755229    0.93837277050275   -2.47607174706805
N         4.13738368892527    0.22634052017603   -1.47370345087230
H         3.15079995709188   -1.70864740605115   -0.11411510592055
H         1.40556537553037   -1.29851651903524    0.09317358319992
H         2.46846153725967   -1.61234287682335    1.53571257580217
H         3.63877819793682    0.37284816216497    1.19891292505960
H         1.92129359827827    0.80941858979483    1.05284524080332
H         0.81572002614188    0.44798791565309   -0.88783967198738
H         1.66901722621290   -0.02393689417741   -2.43122549985184
H         1.10194911087658    2.87293493466192   -1.48911305467332
H         0.07722034386481    2.07785943022686   -2.69311359686998
H         3.47675991696511    3.65791219350068   -3.78916670932516
H         3.08509693842948    4.36884517897457   -1.52765979858860
H         4.67777674122209    3.62087021322605   -1.73440446638096
H         0.75398253899205    4.33692769903918    1.64502403314897
H         6.54736363257930    2.88026631236100    1.50345827816704
H         3.61651728725015    0.97298031167712   -4.11215230769975
H         6.02441562702760    1.57648018316404   -4.75051064872186
H         4.80012529703794    2.41841709505031   -5.40846670378925
H         5.57275169641493    1.55545231877229   -1.83462362692967
H         5.55506332823985    0.19137355205505   -2.96624976063522
H         3.65857666059350   -0.59029824301407   -1.90887927673572
