37
 energy: -49.850622116993 gnorm: 0.325948131818 xtb: 6.4.1 (79825abcba525fcdf90b791dcacef51065a7a4e7)
C         2.73668309242152   -1.29489305125092    0.53723592774943
C         2.90546118803908    0.21296469047237    0.61417917068492
C         2.85085801726382    0.96915493160789   -0.77832341775885
C         1.21074598004728    0.95830156909940   -1.35969493497438
C         1.03431917954394    2.00439775346857   -2.44818822673975
O         2.02122308658349    2.12491852904681   -3.39621633655971
C         3.25426862928350    2.75187294197147   -3.14518564960885
C         3.53882741301047    3.34249140389475   -1.80927965309047
C         3.30892840830363    2.43697181411256   -0.51412531227361
C         2.27386872484695    3.20378786269703    0.29274545472464
C         1.37243753974373    3.73006176139845    1.07408607981674
C         4.60864754106723    2.52553275997163    0.26900889566959
C         5.66620012403509    2.33960897405755    1.00863797045643
C         4.33920330704676    1.82848855311685   -3.63573004010911
N         5.54763645274506    2.59113862829483   -4.23347884901855
C         4.82534835035919    0.92651127282441   -2.52679307046449
N         3.77428144498908    0.31105586074551   -1.73069492798897
H         3.51536984457616   -1.79333337672241   -0.03643647948266
H         1.75203982118227   -1.43422998333560    0.07307556114109
H         2.61277878410235   -1.71268076327420    1.54590681477010
H         3.87520107124958    0.39367810055654    1.09049895239550
H         2.15905057769482    0.69040088534846    1.25908032614160
H         0.66230891298609    1.18068582302588   -0.44785797345934
H         1.04604294594115   -0.07933166935033   -1.78177936375793
H         0.84742434650461    2.96468708674772   -1.93190867639762
H         0.10109110254522    1.77959943574338   -2.99906284339490
H         3.32983306840218    3.62140951681822   -3.80367374542568
H         2.88661511565318    4.26144537027339   -1.74292082136822
H         4.62366885094371    3.70902816811727   -1.65965288948338
H         0.61442961917433    4.20783193189809    1.65198045974512
H         6.60464290655442    2.58398010493501    1.45710484002447
H         3.85275780931334    1.27638173692346   -4.44344175291187
H         6.32516730701852    1.93483368382419   -4.30747375023424
H         5.27007487077935    2.94307680012720   -5.15291623248393
H         5.50116120624241    1.49576799133611   -1.86094011293099
H         5.34017755021244    0.04222825255988   -2.92708554050774
H         3.27072745619132   -0.46396634082500   -2.21163879866247
