37
 energy: -49.858855016729 gnorm: 0.320143059945 xtb: 6.4.1 (79825abcba525fcdf90b791dcacef51065a7a4e7)
C         2.47268718549811   -1.28278466527059    0.49326877985155
C         2.66979353875821    0.22237423060078    0.55398995615224
C         2.96187498009793    0.92650716085786   -0.83624523769207
C         1.44009774774629    0.79573628804013   -1.67001448949182
C         1.06192092148372    2.04103032356729   -2.45518093196872
O         1.89176413958021    2.43574373206085   -3.47636819917009
C         3.21229525693145    2.80856185541018   -3.17027382304793
C         3.43863408940241    3.38608564847686   -1.76502230319219
C         3.32738198655390    2.39750550749519   -0.51579201958950
C         2.29775785437697    2.97882986319778    0.43936868269644
C         1.56893157747345    3.70902087065786    1.23665713910871
C         4.65306312624432    2.45619421139826    0.22551571253806
C         5.78081568554514    2.77642686940707    0.79618328985505
C         4.25091658361293    1.71718252113485   -3.52395547583361
N         5.39904067813902    2.40521124981437   -4.30349186079060
C         4.93224428899313    1.03535770179889   -2.36182437578844
N         4.08469699334937    0.22535765750919   -1.49992950612064
H         3.43061669313944   -1.71233299421058    0.20734022516318
H         1.66727582859658   -1.66554751505469   -0.14640859600818
H         2.22460167259724   -1.59002652087395    1.51863302183862
H         3.50993889689082    0.41901361688554    1.22883959951820
H         1.77063413137638    0.75479523148023    0.88415939405203
H         0.74354471356647    0.68449516078697   -0.84289666260424
H         1.56319108435550   -0.16615591733686   -2.25445995981635
H         0.96142540401901    2.86474053934213   -1.72372212399000
H         0.06735138592468    1.90393062820148   -2.92095650361410
H         3.42872964682856    3.66328268938097   -3.81681760551181
H         2.65336708898571    4.16609270822858   -1.54319919411865
H         4.50285367829183    3.83362693112387   -1.73742200854443
H         0.97298539104426    4.22148114475659    1.95709788470014
H         6.69763619894678    2.68135569063359    1.33647601648726
H         3.76513573915422    0.91777271276999   -4.08858836474503
H         5.95617577036395    1.66742464410500   -4.73481200679103
H         4.92669092855299    2.95488035340941   -5.02530596519540
H         5.42064786706079    1.80745659405810   -1.73775576226320
H         5.78285345506609    0.40590299661339   -2.65761221748508
H         3.66784897033091   -0.60121919899817   -1.97798961256596
