37
 energy: -49.852138571284 gnorm: 0.329444539052 xtb: 6.4.1 (79825abcba525fcdf90b791dcacef51065a7a4e7)
C         2.37586324268159   -1.22203311767516    0.48097615012806
C         2.69500083570883    0.25851074809791    0.60006576229934
C         3.07808019649944    0.92728280720355   -0.78552536866580
C         1.56796955813588    0.88303345684402   -1.64905648334630
C         1.10129538812801    2.14050649405993   -2.36406562230943
O         1.91968991924505    2.55468154754176   -3.38678322389526
C         3.24785742925073    2.87909673172933   -3.05934558755474
C         3.51472737309762    3.39767778299858   -1.72414950300190
C         3.36661188898863    2.40652184881017   -0.48080090451668
C         2.27782299899565    2.96720047176338    0.41951797852888
C         1.41049468754814    3.75467426587366    0.99193577591034
C         4.67051435485698    2.51193975897179    0.29323873740003
C         5.76191267732595    2.57563744417520    1.00375164005385
C         4.17674024544114    1.66123982115485   -3.48598214964500
N         5.14860337093132    2.13534376011587   -4.59501639787442
C         5.01118600780913    1.07873308880637   -2.37062238864775
N         4.24810612738451    0.28090174206685   -1.42274397101452
H         3.07487672445331   -1.75336939897981   -0.16164174204199
H         1.38289224758793   -1.42175392349415    0.05848094212036
H         2.37696968571440   -1.71669328492355    1.46211115765194
H         3.48734356004976    0.47813432442550    1.32386946775729
H         1.83878688002035    0.79412717370087    1.02548828926127
H         0.83033751384380    0.60576471363398   -0.90025368649277
H         1.75198129348709    0.01727915381820   -2.35515439443904
H         0.79636513264203    2.94772103717087   -1.67192974187426
H         0.13177663645382    1.96904270770836   -2.86958053875101
H         3.48107644011030    3.69068552303474   -3.75385472255115
H         2.94799155542994    4.33517821276276   -1.45181841557868
H         4.59959071648131    3.79148040377905   -1.76426593471524
H         0.50473641012706    4.15554154306681    1.38653639386172
H         6.73761762510102    2.63561834773176    1.43493225496663
H         3.51130874059925    0.89116248537772   -3.88351350572073
H         5.85253485237143    1.40330974054861   -4.69182713348164
H         4.69094811902712    2.23844618094008   -5.50396500583766
H         5.60249404244012    1.92376286497328   -1.97010288299463
H         5.73343020584524    0.38499125690496   -2.82264585665261
H         4.01000178177167   -0.64135804434758   -1.84497168954006
