37
 energy: -49.854115904084 gnorm: 0.316100414650 xtb: 6.4.1 (79825abcba525fcdf90b791dcacef51065a7a4e7)
C         2.62145988937212   -1.38682729156142    0.33414814175547
C         3.00826286513362    0.06983352862575    0.52536527086411
C         3.01146077714168    0.96124280174528   -0.78583567759568
C         1.34438879240655    0.94340101220256   -1.28446459737743
C         1.04708211757190    2.05135972554617   -2.28160928091733
O         1.95964978427400    2.10368809370386   -3.30715492679018
C         3.18184075398728    2.78218921616312   -3.15757213209163
C         3.52096138164545    3.30420352533523   -1.77995325345902
C         3.37407810875406    2.41460808876250   -0.46189055030532
C         2.21052348051776    3.00956571482256    0.31435806647218
C         1.34219261065621    3.61602551789026    1.07478130088980
C         4.69344801091964    2.49268730403524    0.28882821720575
C         5.53115555777071    2.95763000554842    1.17319842510543
C         4.36181688993159    1.82801990635041   -3.64510408986802
N         5.52310233490150    2.68142302939451   -4.21287928153865
C         4.87029962828645    0.93101317543459   -2.54216916450748
N         3.76442062637912    0.27530830336466   -1.86071336229105
H         3.19921425727270   -1.86786485313908   -0.45242582273884
H         1.57286108871296   -1.57568711710047    0.07117567218877
H         2.80150405278782   -1.93125334661383    1.27143154505311
H         4.03800349957062    0.02065437829094    0.89570153584045
H         2.38183245728761    0.50641603368837    1.31146467945914
H         0.68636538851467    1.06663538484549   -0.42801663823225
H         1.15967302820944   -0.09773174318987   -1.68929513500900
H         0.89815909760063    3.02967588359294   -1.78729229211286
H         0.10103614053183    1.79557753299471   -2.79588960330507
H         3.15657452370257    3.68416237484906   -3.77499941559679
H         2.82704294346965    4.16920659974718   -1.56898489275593
H         4.59715631047473    3.69855520505462   -1.92105440342826
H         0.44285821826717    3.81559666377926    1.61159718422896
H         6.42009069715684    2.98382897987427    1.76533231091639
H         3.89549781437932    1.23687351831058   -4.43690067831811
H         6.43986918286798    2.23706271453035   -4.26624698659133
H         5.27174830494182    2.99899933503421   -5.15215158093784
H         5.53038227152347    1.45685344131334   -1.82668379933726
H         5.48403800879796    0.15679132337000   -3.02294494454281
H         3.07334126714131   -0.00811484906070   -2.58708356769661
