37
 energy: -49.855550206618 gnorm: 0.317730686505 xtb: 6.4.1 (79825abcba525fcdf90b791dcacef51065a7a4e7)
C         2.59043947841728   -1.42680634308889    0.35677202558527
C         2.86495426489117    0.05737775390362    0.52963172496557
C         3.06702496102323    0.87954006141985   -0.81092234694776
C         1.61220489489838    0.66378630208473   -1.74099063563839
C         1.04208762259907    1.91913254094064   -2.38078232474349
O         1.80099793852072    2.42508680384788   -3.40807356499057
C         3.09803331925769    2.86270512886745   -3.08763796339327
C         3.32253133319484    3.43517595398546   -1.72135403033701
C         3.32959443052864    2.36353854909484   -0.53738299771990
C         2.29834426155613    2.79372967544338    0.49308027482139
C         1.58842402014528    3.51411421263778    1.31593802107805
C         4.66257906705752    2.48619107536593    0.18270055276162
C         5.62795734527020    3.14269827951804    0.76328593119121
C         4.11194538163305    1.84952685701268   -3.53857221517318
N         5.08477195574914    2.68247797901364   -4.40980715959666
C         4.87819944832601    1.13496483689860   -2.45142133115402
N         4.22621682938772    0.25767883909325   -1.49090730264234
H         3.40067076901160   -1.99341239449716   -0.09751718305538
H         1.72646565212514   -1.65449619045572   -0.28047875631463
H         2.30101412872397   -1.86731761812423    1.32087709857839
H         3.78244618805182    0.15898206341917    1.11939307274741
H         2.09611473179763    0.55672752282547    1.13005424313504
H         0.89467500936314    0.34003906358677   -0.99130856554440
H         1.93628592342335   -0.10693359004121   -2.50448747702012
H         0.81192356143277    2.67602352753645   -1.60762619844355
H         0.05909956747299    1.68164556861870   -2.83050022749430
H         3.19538980398641    3.67109785160425   -3.81731825811236
H         2.58573648012247    4.27133005108630   -1.54179781986530
H         4.34590964160206    3.97023852011813   -1.71653780777468
H         1.08245164382388    3.82293577407004    2.20217923030977
H         6.54308062044264    3.26207142237282    1.30162974153667
H         3.57663792171140    1.12566276203589   -4.15769745702869
H         5.63678136821651    3.30652792185327   -3.82106873527245
H         5.73192017895130    2.01215398616437   -4.83186276316747
H         5.42884802856898    1.88551705929134   -1.85342978326026
H         5.66815752589560    0.53938073381246   -2.92942283570447
H         3.80007314993346   -0.61080973093342   -1.87776930325618
