37
 energy: -49.850178576515 gnorm: 0.324183905438 xtb: 6.4.1 (79825abcba525fcdf90b791dcacef51065a7a4e7)
C         2.52208114634807   -1.35754198018673    0.33352303970284
C         2.80867238622543    0.11640097399364    0.56460507294856
C         3.01032035500539    0.91390025735868   -0.79082904011330
C         1.53445911658399    0.72752074020482   -1.69369913629689
C         1.10085607256263    2.04357564733332   -2.31839839992664
O         1.90481908967676    2.58997277997023   -3.28914837607890
C         3.25066185201878    2.92500833760270   -3.05904408225343
C         3.58700480705451    3.39948939987771   -1.67814296146387
C         3.29772472750260    2.34834726166773   -0.51124052699213
C         2.19258665928777    3.00975796073905    0.29597788560760
C         1.47512359729595    3.56777435797409    1.23080409472972
C         4.47627289892134    2.49857576943738    0.43684578916780
C         5.63640851816255    2.85172982927081    0.91580701320146
C         4.18816000823025    1.76071841666543   -3.54144892115667
N         5.15560518008942    2.46991243065544   -4.52141990701263
C         4.96358929821459    1.08285409109817   -2.43743325469368
N         4.18425340655071    0.32216202472473   -1.47240351230086
H         3.37659157103338   -1.88595611288616   -0.08419251566446
H         1.69379186286114   -1.46424586380415   -0.37846933533930
H         2.18830298365552   -1.81204383003904    1.27656917575038
H         3.75914328615666    0.24408925575979    1.09397647656768
H         1.98585215091787    0.47144645361620    1.19538331226211
H         0.70537069648840    0.38198405347219   -1.08140720702000
H         1.70978393785769    0.03171579912507   -2.56953118789597
H         0.98644654054278    2.65307218976506   -1.40239933890367
H         0.14605896422347    1.96613737685670   -2.87272462743362
H         3.42770988418794    3.79107246854252   -3.70247032290742
H         2.87654302806083    4.26053705915151   -1.51050717543411
H         4.66717405083462    3.80730712321721   -1.70132521506956
H         0.70239112840253    4.10023104612711    1.73694306321517
H         6.40064447654545    2.81104157685509    1.66132864619321
H         3.61301755867656    1.07993005541893   -4.17357844862502
H         6.06473611112302    2.00710916319136   -4.51369069539302
H         4.80046920502280    2.29160167146728   -5.46394296934534
H         5.53408362574470    1.83926057207357   -1.86601235352937
H         5.60767755311770    0.35773764990125   -2.95376269685741
H         3.99286185886597   -0.66352506178451   -1.75047415424564
