37
 energy: -49.855515437542 gnorm: 0.322953596575 xtb: 6.4.1 (79825abcba525fcdf90b791dcacef51065a7a4e7)
C         2.94268457654078   -1.39195437059450    0.38506781364936
C         2.99284095234388    0.11649214826900    0.55860373285419
C         2.98984903610441    0.96156462263156   -0.78292979544671
C         1.36396603302365    0.87903191701818   -1.39756053347489
C         1.03929128113620    2.05808235827451   -2.30016102744159
O         1.90151516118163    2.23814496368830   -3.35439502185759
C         3.12743259548404    2.88431327875396   -3.11757757113331
C         3.46805246660609    3.40005732072875   -1.71100904127751
C         3.32910737577916    2.40465887870869   -0.46999324801925
C         2.21237988528050    2.94767518035827    0.40661887521276
C         1.08877786474662    3.21281671652662    1.01263367725633
C         4.61984588144181    2.45550172956974    0.33114408302960
C         5.79107132786063    2.65422767552861    0.86852215806655
C         4.17968073692003    1.94557973472770   -3.67045544939918
N         5.32428307793963    2.78276198005668   -4.29356122888289
C         4.77906334563020    1.08358127215741   -2.58540228988693
N         3.90108444916615    0.29072837705360   -1.73814990685985
H         3.83603797921745   -1.83540994795387   -0.04986056634137
H         2.13982374816811   -1.73523022327877   -0.27973153759482
H         2.86474167957847   -1.97178002495874    1.31514465114168
H         3.87279747010274    0.45645322713414    1.11541277003684
H         2.09088748095511    0.33752018485786    1.14049561479669
H         0.60807053091858    0.88502320440570   -0.61636227967175
H         1.30475752355120   -0.05737358026123   -2.03128301938184
H         0.93361720736502    2.95236764264096   -1.65773073809009
H         0.05633759524039    1.91929848888290   -2.78950023459814
H         3.09159051796959    3.76613547287053   -3.76295759502677
H         2.81957790477985    4.28887727936349   -1.45854006447036
H         4.57338278285855    3.73409068282314   -1.72788827715247
H         0.35027432812439    3.76782561422528    1.54496807191462
H         6.73526544225742    2.54529166282822    1.35652316676209
H         3.81091905020235    1.29850007251945   -4.46992533560882
H         5.76530435051868    3.36791130769591   -3.58372592658144
H         5.98829996811629    2.15528997484701   -4.75358999204422
H         5.35839931011364    1.68702764114552   -1.86127612070595
H         5.41713446944908    0.34239775388380   -3.08615358521296
H         3.39551293339014   -0.38369224394597   -2.35059362491695
