37
 energy: -49.852889019104 gnorm: 0.320502448632 xtb: 6.4.1 (79825abcba525fcdf90b791dcacef51065a7a4e7)
C         2.81796472747296   -1.38507320226980    0.45591127581167
C         3.28641352044479    0.06000683424613    0.43745338041259
C         3.03378276090724    0.85113857922583   -0.91316014956233
C         1.34624607578805    0.75456193838050   -1.32664657016726
C         0.97189044713958    1.90307124211152   -2.24916786081840
O         1.82982738412671    2.00096872359923   -3.31763506733429
C         2.99894128748320    2.77147585923830   -3.19121913883045
C         3.30231505556022    3.35365688829804   -1.78213887831816
C         3.35286405833976    2.33127825190092   -0.55640206231818
C         2.32235105268163    2.74640067832126    0.48095618921005
C         1.39723213211032    3.39639620954447    1.13033769227598
C         4.65400346683212    2.50136305181790    0.21074811772169
C         5.52334079600654    2.84614049018834    1.11927296956530
C         4.20771710678232    2.00023151976982   -3.73741784240971
N         5.24074498758697    3.03528812161591   -4.24806514909042
C         4.83965896927486    1.17026571028425   -2.64588339149733
N         3.93151277893570    0.27764578134269   -1.94175313663290
H         3.62124659748024   -2.10151597836082    0.29671381112495
H         1.96213847595253   -1.64410579176900   -0.18036346275504
H         2.56095319322597   -1.57322045621800    1.50751076723703
H         4.37286936760567    0.17088357908897    0.52261999221129
H         2.87466574677743    0.65023278980168    1.26393309099122
H         0.85039503521929    0.71473267339111   -0.36009083326513
H         1.28559942140512   -0.23054325428726   -1.88149324693591
H         0.92110754943615    2.83772420541963   -1.65969793637649
H        -0.03119961953791    1.70623759147374   -2.67340671188630
H         2.86484761980972    3.63665378356754   -3.84612100883586
H         2.56874274944390    4.17585335792752   -1.53693407038921
H         4.33190471724303    3.83339218777293   -1.99050747685004
H         0.67167486679079    3.78589804106186    1.80758006500484
H         6.42812869645977    2.88114331368642    1.68641339806493
H         3.91413758364070    1.34918083627865   -4.56433588000026
H         5.49863706332070    3.69163157224242   -3.51086055945033
H         6.11540732405090    2.55215929854332   -4.46673921746869
H         5.40957270513601    1.78867072003089   -1.92691888163487
H         5.54069782758580    0.46251556417248   -3.10942829371799
H         3.33153392804614   -0.12380665449742   -2.69301498152952
