37
 energy: -49.853643925189 gnorm: 0.324509274967 xtb: 6.4.1 (79825abcba525fcdf90b791dcacef51065a7a4e7)
C         2.40128127891961   -1.37212289922905    0.47205896603833
C         2.79640896527631    0.08954168837995    0.59636512956132
C         3.01247373895862    0.90503808250496   -0.74607678376693
C         1.48597407605049    0.93508039003627   -1.58092669245577
C         1.13238990855624    2.20456878277121   -2.33831612089667
O         1.92936307177684    2.43220028740028   -3.43388882560728
C         3.26505753466773    2.78427124167422   -3.17224804701052
C         3.50234147705906    3.33380641990836   -1.70779855802233
C         3.35285440368265    2.36624577060682   -0.44616309152012
C         2.18229934529220    2.89985439693235    0.36344088307671
C         1.48575236889832    3.72188808796906    1.09768774927915
C         4.63666285652450    2.67786904932973    0.30559402925315
C         5.76462514869636    2.83658972136590    0.94005847896088
C         4.20178593525992    1.67563258550906   -3.56814199649291
N         5.27205351518791    2.33959466849917   -4.46976891660027
C         4.91047106208385    1.02094846515534   -2.40676552283666
N         4.09341083931866    0.22929309707645   -1.49957556096542
H         3.14703722972066   -1.97937873292050   -0.03684599675496
H         1.42554208169717   -1.49428092084500   -0.01517037926370
H         2.31338342715010   -1.75945363903660    1.49654160323951
H         3.81739631199766    0.10811890539345    0.99281567753682
H         2.02470608736301    0.59582299246019    1.18723358285083
H         0.69437362466809    0.74446219278200   -0.86070586135772
H         1.54512244429505    0.10295327774529   -2.34645332918082
H         1.09264549877098    3.11210860735331   -1.70710957387338
H         0.12659670372378    2.03440603203532   -2.76766031616572
H         3.47284253806096    3.64337950493475   -3.81580752068461
H         2.90567637131130    4.28075287611653   -1.56102005693665
H         4.57330250101750    3.74925594334535   -1.82638392439139
H         0.69764396589333    4.16214580092348    1.66501533884523
H         6.63804979476276    3.13741816049286    1.47685101974349
H         3.53138091583669    0.99421286984663   -4.09736184759336
H         6.08451389623660    1.75780386725837   -4.67517886696135
H         4.83032499894149    2.45463047754767   -5.38514244214267
H         5.40620237054554    1.81256611571072   -1.81369861769118
H         5.68745528518504    0.31041825435786   -2.72090237698949
H         3.77701703536978   -0.66006107906717   -1.94057119532780
