37
 energy: -49.858064684712 gnorm: 0.332780993283 xtb: 6.4.1 (79825abcba525fcdf90b791dcacef51065a7a4e7)
C         2.45814957815062   -1.27015228854151    0.53648131719245
C         3.01207701400187    0.14412980007284    0.56829086303844
C         2.94776495919802    0.95769246790205   -0.79106501059358
C         1.29513957678840    0.99824853452285   -1.33444579993134
C         1.04669572940436    1.92477216179398   -2.51346696685364
O         1.97046527508448    1.95002235331477   -3.52996789182628
C         3.13605825910610    2.68127703286601   -3.24161196363502
C         3.39767528410791    3.31018330482760   -1.87394014844727
C         3.32515655991394    2.40533317175652   -0.56007893774376
C         2.31593578832024    3.10534828538620    0.33538077594935
C         1.59350359395021    3.63377954012343    1.28347761957941
C         4.65425151074641    2.52172942931985    0.16818643447579
C         5.81472903939875    2.74131773229496    0.72055328704492
C         4.38929624642535    1.79953584790178   -3.53235444620401
N         5.53034564510854    2.81390058868850   -3.79373517580606
C         4.78708867612853    0.85418477142301   -2.42433199825619
N         3.64287465798592    0.17342122098625   -1.83727618697265
H         2.88473508144460   -1.76964560894091   -0.33094422897761
H         1.36829501665522   -1.34419068509281    0.43104247798573
H         2.76411346928216   -1.83005724781532    1.43102496743821
H         4.04573689709011    0.06260473609104    0.92160973066290
H         2.47047997268339    0.76794413394564    1.28836026349522
H         0.64445391290326    1.20506502943089   -0.48856181165511
H         1.07112784712116   -0.07520701072615   -1.61636250646353
H         0.88695562137019    2.95533862727662   -2.14462321336837
H         0.12013964606598    1.60775978847374   -3.02913037477628
H         3.20626216886631    3.48911821622988   -3.97501120368993
H         2.69024814427711    4.18252430488596   -1.76067593156750
H         4.45197075219396    3.77773173471907   -1.93291333358628
H         0.91612393665495    4.20903326268350    1.87258051013994
H         6.72990406939281    3.05763122885645    1.17212278121800
H         4.18638973772945    1.31805945981121   -4.49196833013592
H         6.40588366192760    2.31225719220359   -3.64355948281112
H         5.55748350315327    3.20205799568512   -4.73970736078450
H         5.33332167280657    1.41475747569897   -1.64233190525690
H         5.39510487984662    0.05641111383054   -2.87278836609907
H         3.04170979182941   -0.21226704118379   -2.59581320486398
