37
 energy: -49.853859336353 gnorm: 0.325345824597 xtb: 6.4.1 (79825abcba525fcdf90b791dcacef51065a7a4e7)
C         2.86824233289306   -1.44413278128956    0.31945351896104
C         2.95736901060269    0.06543373578178    0.46542147225640
C         2.87522445035277    0.96600387537747   -0.83692039564671
C         1.19621330425964    1.07443270888447   -1.28104075168909
C         0.98786067897022    2.00715385935410   -2.46293826341210
O         2.00984492686002    1.90915223716048   -3.37573931252948
C         3.16512978053983    2.68680442341839   -3.18322038839508
C         3.40561075169730    3.36370637488976   -1.83352662711253
C         3.33562501559661    2.42420098239080   -0.54407883538044
C         2.30530045736638    3.03213466858188    0.39360111657513
C         1.48299128511710    3.70862508399404    1.14606627834850
C         4.62236166705995    2.55024239686489    0.25519224345070
C         5.65539198214524    2.89226313751438    0.97345849360818
C         4.40202519075663    1.82241453602898   -3.54735176091415
N         5.60700471454141    2.73538881205854   -3.88462281207188
C         4.78035267044394    0.82626026173159   -2.47768536433560
N         3.59015150701906    0.22160884964226   -1.89879235446579
H         3.38834845583703   -1.71024225966172   -0.59846326009747
H         1.83727493938377   -1.81036640656534    0.23365629631428
H         3.33454004776618   -1.98102560584751    1.15708610208975
H         3.91570046897173    0.32644852573139    0.92737970358458
H         2.18645097167000    0.37617351073796    1.17963277801268
H         0.62996013720906    1.23959085245299   -0.36793355328966
H         0.98879142055853    0.03834493576913   -1.68781265414114
H         0.81989109133988    3.04621803500944   -2.12270053349124
H         0.07099753716748    1.68473748997478   -2.99239216568091
H         3.12445128404720    3.44216983030572   -3.97263711851790
H         2.77809044119064    4.27162900238207   -1.59655506576348
H         4.45802873772369    3.83494607021995   -1.89651735518991
H         0.94899803406537    4.21464989612506    1.91781255498851
H         6.39740316289201    3.04885438487787    1.72606273620513
H         4.06768609658505    1.17478621450189   -4.36138142686775
H         6.37743393136677    2.18201871664870   -4.26010385588607
H         5.27442389168762    3.48313302129913   -4.49824696781644
H         5.29741595228141    1.36414566560209   -1.66070235120087
H         5.49587077917932    0.09724449182592   -2.88241919028639
H         2.93918271901995   -0.17181170793800   -2.61082672252054
