37
 energy: -49.853602566572 gnorm: 0.317637869492 xtb: 6.4.1 (79825abcba525fcdf90b791dcacef51065a7a4e7)
C         2.71881116199937   -1.25675050177362    0.43106550692745
C         2.75723994358386    0.25262966825256    0.59939853552191
C         2.93480288949899    0.99383829653043   -0.79090711987678
C         1.51287365422950    0.77886208145756   -1.77069312094316
C         1.05285375719537    2.07701459175283   -2.41368848900637
O         1.86811071723546    2.53522895166350   -3.41999737076662
C         3.19329700195286    2.90858186533179   -3.13543021756126
C         3.37558879132346    3.46672673884790   -1.73815087316156
C         3.32138926076802    2.45273420713025   -0.50562275108774
C         2.30305542581560    3.02156429896958    0.46896658171404
C         1.30447939022346    3.51930495093766    1.14360399889616
C         4.62859672188863    2.56780242672122    0.26143653360756
C         5.73454600855284    2.27275833518536    0.88582537693900
C         4.21213508907860    1.72244366051726   -3.54910717706152
N         5.27987279659187    2.47226939425960   -4.38394069358545
C         4.92402477644149    1.09824023938620   -2.37300157720275
N         4.09286081644344    0.34440229058107   -1.44661392894888
H         3.66859832693101   -1.69287182161867    0.12841326002935
H         1.95278929865364   -1.61481192717411   -0.26849472540506
H         2.50344830945598   -1.76925693992317    1.37883752637564
H         3.62240497047999    0.46199419571568    1.23782573025464
H         1.81568090502100    0.53771789715354    1.08226797785288
H         0.80219898955171    0.54120543564019   -0.98319997369167
H         1.69824361625383   -0.07404920917878   -2.49190418534463
H         0.87392855281177    2.87269506087831   -1.66635441474117
H         0.06975246334816    1.90124144599790   -2.89068683056793
H         3.43216552439632    3.73368632634369   -3.81185823974049
H         2.61246450770195    4.26113303855190   -1.49153229362449
H         4.41486541198386    3.96891359656408   -1.70167111347873
H         0.77774328901564    3.66606621698276    2.05892497087546
H         6.60949366044448    2.43436729629017    1.47731819609524
H         3.70295466111832    1.00272990276810   -4.19455025622190
H         6.10174638812580    1.87792733873601   -4.49369940833617
H         5.01361956829223    2.61024845705052   -5.36186554107461
H         5.40770340219513    1.90203298203547   -1.78639386955892
H         5.64478206758740    0.35102477150002   -2.73274815234803
H         3.75664810680695   -0.53354198666200   -1.89573295465235
