37
 energy: -49.854277928707 gnorm: 0.317167959608 xtb: 6.4.1 (79825abcba525fcdf90b791dcacef51065a7a4e7)
C         2.37854625723905   -1.23327607934368    0.45317232462872
C         2.75019068071649    0.23142627963368    0.60991638248693
C         2.96945935047402    0.95061059153307   -0.78599329296807
C         1.39385039584951    0.83131627238082   -1.51489892393094
C         1.10872245843261    2.00216991477949   -2.44121695604562
O         1.99691424806689    2.23414032991302   -3.46325753620362
C         3.25061215814871    2.78919122469750   -3.15237233787393
C         3.40318492771957    3.40748709512921   -1.77012753439013
C         3.34580412541686    2.42653021264713   -0.51128876682473
C         2.26797678615587    3.00109524395352    0.39345374020146
C         1.54356409901266    3.59706655276430    1.29903640969694
C         4.70105134462081    2.46940344135894    0.17564561896920
C         5.78117651456597    2.86673338256182    0.78842190263648
C         4.31023393624859    1.74314389890411   -3.48930302657432
N         5.37781275780006    2.47212326434185   -4.34259898222450
C         4.96727640749300    1.01895057549011   -2.33887682669353
N         4.03169520042871    0.24410741350084   -1.53787424507450
H         3.08287993265509   -1.81799766793335   -0.13496931171523
H         1.39871022218143   -1.20410760621596   -0.04023677821629
H         2.28590490988980   -1.70437472442515    1.44150397729123
H         3.68919760931930    0.26849989389202    1.17278834603015
H         1.92280338205468    0.73396214819780    1.12358902006875
H         0.69489050527645    0.70728700223000   -0.69163928755700
H         1.34713162632398   -0.08189607185024   -2.18260070091413
H         0.93973760020762    2.86045283411851   -1.76414649853488
H         0.15117629172844    1.80985367636594   -2.96182388430262
H         3.38554910767414    3.59426332296645   -3.87973837230130
H         2.61715263583507    4.21433110693194   -1.69652906107442
H         4.45738063633641    3.86096064640729   -1.64108701683083
H         0.93132299166921    4.23652016124757    1.89322672562796
H         6.65750477068073    2.69852454586016    1.37601801611467
H         3.87745876548988    1.01663654144277   -4.18121492914632
H         5.99442765041923    1.77239679242538   -4.75604135257045
H         4.92585941284598    2.90186024651191   -5.15335807766398
H         5.56519174993659    1.72373287181098   -1.73066999761228
H         5.65607044924910    0.26214756782412   -2.73894132425684
H         3.66251695803868   -0.53747975475594   -2.11956313369115
