37
 energy: -49.851873229934 gnorm: 0.328647954813 xtb: 6.4.1 (79825abcba525fcdf90b791dcacef51065a7a4e7)
C         2.74574275400929   -1.40659974366096    0.19554120514973
C         2.96422759678449    0.06295167307757    0.51291209950173
C         3.00472633002272    0.92171818134119   -0.81928480144399
C         1.50605553850094    0.62998488697512   -1.65412351331433
C         0.98587987126058    1.90483153494986   -2.29789722241768
O         1.74332070981295    2.30085632792389   -3.37340157646661
C         3.00516779923609    2.86311734919818   -3.11245326942621
C         3.24071908486311    3.40421910432576   -1.71073168795809
C         3.26137734639801    2.37750991622408   -0.48774947857788
C         2.24237263150649    2.97441480485717    0.46918821252270
C         1.32676815418317    3.51684856611323    1.22249395517841
C         4.58933432729050    2.51932600476740    0.23808136549525
C         5.81943585459307    2.52319629288799    0.67036770363687
C         4.20304095764657    1.95116045457376   -3.55317904393235
N         5.22872408037808    2.88109216771526   -4.24776567208357
C         4.93148327387756    1.17766287356021   -2.48046542693294
N         4.20431436652778    0.38426534224389   -1.50115700060942
H         2.03870562076280   -1.62923397812332   -0.60096889317669
H         2.38445955813235   -1.94459417060864    1.08121521240762
H         3.73761174357898   -1.80455764586488   -0.05968658308640
H         3.87807202279745    0.18722548837647    1.10399390097778
H         2.11889189866494    0.44628143239292    1.09552472627272
H         0.83141056288893    0.13740650701961   -0.95849048231622
H         1.67524503374128   -0.10818824295923   -2.49581255148711
H         0.95807167263583    2.72654552848504   -1.55786838969181
H        -0.07215356423874    1.85509038061348   -2.61883777388849
H         3.04572271639345    3.65691432266068   -3.86322092683631
H         2.49872858588624    4.21836349334107   -1.46399341395863
H         4.23287590575171    3.99407693686717   -1.67452552266057
H         0.61674385915472    3.77007764361716    1.97651171380245
H         6.77384841981425    2.68102102162819    1.12391218812687
H         3.87543557020902    1.33221712414067   -4.39188831036874
H         5.47931272650013    3.48234311327428   -3.46261072826949
H         6.01323065448118    2.27196674971049   -4.49226857804756
H         5.43084166921794    1.93854550539711   -1.85131107192049
H         5.68807293378472    0.53836716181533   -2.95597852455898
H         4.00656049116803   -0.57766377709778   -1.84917828371645
