37
 energy: -49.852275314613 gnorm: 0.329330474778 xtb: 6.4.1 (79825abcba525fcdf90b791dcacef51065a7a4e7)
C         2.42535726246022   -1.19724451123359    0.49667346413438
C         3.00935945469253    0.20430831798573    0.54798022686594
C         2.85824724239249    0.97741627978389   -0.82800590121651
C         1.19247048911686    1.01420196205818   -1.32991500957000
C         1.02003141180340    1.88262346674990   -2.56537854361996
O         2.08290876828704    1.85271569970038   -3.43524009965493
C         3.21744675217158    2.65988042952496   -3.24082247154905
C         3.26750512695541    3.40152164015424   -1.88014006659910
C         3.23181998343072    2.46813886280328   -0.58485354847701
C         2.33628564097130    2.98849191180889    0.52764220585422
C         1.69401945840725    3.73228100480301    1.38455962898530
C         4.57629444545807    2.59751548532765    0.11232802735599
C         5.75971042470252    2.65229051349045    0.65690359650576
C         4.43757784366735    1.85369252005947   -3.53974145090725
N         5.61441978138074    2.79025458409074   -3.91007103010064
C         4.85555891838143    0.89005914641578   -2.45514762720824
N         3.77136357890081    0.24212537120103   -1.73265088314368
H         2.96038104649720   -1.83661266349774   -0.20250731596687
H         1.38445186798692   -1.28501277974280    0.16022928009628
H         2.64469788592902   -1.67994746399406    1.45906806021846
H         4.07315746008365    0.15713817878067    0.80496679042220
H         2.42022414948615    0.75399832408360    1.29076694532076
H         0.53587379209588    1.23444152432862   -0.49202484374145
H         0.98307449213060   -0.06992733310736   -1.58047853414305
H         0.69532238329948    2.89625457319422   -2.26413796999930
H         0.18840116481354    1.45724474647212   -3.15897423706655
H         3.17785230386506    3.48171886355188   -3.96083933233164
H         2.39914947184943    4.12240210731245   -1.85667579609973
H         4.22658668185043    4.02818913643168   -1.73498935097773
H         1.07221803379168    4.03529117589907    2.19594739272366
H         6.71643438773537    2.56672222339698    1.12474112802739
H         4.21602585851424    1.32342042066683   -4.46902912878601
H         6.49885503075290    2.33022054879040   -3.69348702578086
H         5.62433640407315    2.95182950128861   -4.92005183062155
H         5.50215800446871    1.41139410074823   -1.72421953490567
H         5.35522973717702    0.01960913908815   -2.90223317176593
H         3.17822083571428   -0.23425917178319   -2.44453043248576
