37
 energy: -49.774716043449 gnorm: 0.327257964409 xtb: 6.4.1 (79825abcba525fcdf90b791dcacef51065a7a4e7)
C         3.06427008327870   -1.46295616507352   -0.13105955193725
C         3.50205082624066   -0.08579346879041    0.33778179286711
C         2.96099339978622    0.85053321267389   -0.82170854898430
C         1.24615369196219    1.07004346685677   -1.01974429330974
C         1.09899875638728    2.11640985284199   -2.11232111000107
O         1.96479017278944    2.29272996381095   -3.16426137344423
C         3.17927614730131    2.97242461479651   -2.96544348894289
C         3.80470994330246    3.34486937899510   -1.66199745626298
C         3.56503810888780    2.35088787196591   -0.43529368482612
C         2.66190517380776    3.10041821279395    0.53060033033658
C         1.48999091825648    3.62141933428655    0.76556916366723
C         4.53435304799657    2.38435881412306    0.73505692278249
C         5.02872522193857    2.59190578085615    1.92356717610820
C         4.12181515617858    1.87981434207703   -3.74222740394096
N         5.22817593409575    2.51809558651137   -4.61847641276762
C         4.57134012074177    0.83074254194257   -2.75378575950464
N         3.47098350871414    0.19314863535266   -2.04668704427028
H         1.97816038060756   -1.40241428537375   -0.15547760777670
H         3.31274893104886   -2.34865390323570    0.46742167333367
H         3.30661455233915   -1.70812449694970   -1.17436078151582
H         4.58227418187639    0.04120952880009    0.46786273957523
H         3.08528057150440    0.21590811642627    1.30538208637643
H         0.75908200218555    1.31889942050651   -0.08032079952337
H         0.94632057018477    0.02782841714097   -1.34509484465411
H         0.74787494528892    3.07149532638849   -1.67855427882655
H         0.18001650092970    1.75847422950097   -2.61458147510842
H         3.12038945265343    3.80423274064165   -3.67257714728779
H         3.20707493636658    4.23754901069538   -1.31527529913379
H         4.89564062269663    3.59017123681417   -1.95064186993830
H         0.76648842677634    4.14018572365255    1.35227859765211
H         5.83217571255634    2.92707046168677    2.54295937640931
H         3.58358291165576    1.40980419942582   -4.56881429383876
H         4.93887820454043    3.05896858966839   -5.43366281661920
H         5.74136644528128    3.09443030578821   -3.94710483064512
H         5.13925267616549    1.36920916929433   -1.97169534945248
H         5.05634434797924    0.10368819528048   -3.41967051164821
H         2.70352312492087    0.00050580781535   -2.72449700264641
