37
 energy: -49.378703802793 gnorm: 0.288474973985 xtb: 6.4.1 (79825abcba525fcdf90b791dcacef51065a7a4e7)
C         1.14346000000000    0.22657000000000    0.92619000000000
C         2.33400000000000   -0.18815000000000    0.07845000000000
C         2.82676000000000    0.86548000000000   -0.99901000000000
C         1.38409000000000    1.01023000000000   -1.96121000000000
C         1.09513000000000    1.78612000000000   -3.23587000000000
O         2.16088000000000    2.48976000000000   -3.74216000000000
C         2.99534000000000    2.86667000000000   -2.67534000000000
C         2.26569000000000    2.98208000000000   -0.85773000000000
C         3.48253000000000    2.34795000000000   -0.04077000000000
C         4.61613000000000    1.85306000000000    0.84265000000000
C         5.58854000000000    1.42855000000000    1.60044000000000
C         3.98940000000000    3.46672000000000   -0.93623000000000
C         4.42419000000000    4.42640000000000   -1.70435000000000
C         4.60781000000000    2.07791000000000   -2.91034000000000
N         5.89613000000000    2.07910000000000   -2.05041000000000
C         4.34229000000000    0.59580000000000   -3.02210000000000
N         3.78526000000000    0.05964000000000   -1.78940000000000
H         0.92883000000000   -0.55555000000000    1.65153000000000
H         0.22157000000000    0.33763000000000    0.34124000000000
H         1.32785000000000    1.16648000000000    1.46460000000000
H         2.04055000000000   -1.10051000000000   -0.45204000000000
H         3.16914000000000   -0.46884000000000    0.73016000000000
H         0.59066000000000    1.34746000000000   -1.29907000000000
H         1.11013000000000   -0.05374000000000   -2.23485000000000
H         0.25743000000000    2.49504000000000   -3.09687000000000
H         0.78202000000000    1.15893000000000   -4.09232000000000
H         3.09843000000000    3.88953000000000   -3.04755000000000
H         1.61999000000000    3.80546000000000   -1.28126000000000
H         2.21440000000000    3.84920000000000   -0.09675000000000
H         6.38561000000000    1.08734000000000    2.22097000000000
H         4.80719000000000    5.23827000000000   -2.28374000000000
H         4.96292000000000    2.49275000000000   -3.85673000000000
H         5.82734000000000    1.35702000000000   -1.33303000000000
H         6.06010000000000    2.93843000000000   -1.52038000000000
H         5.29486000000000    0.07788000000000   -3.24234000000000
H         3.72458000000000    0.40688000000000   -3.91091000000000
H         4.55923000000000   -0.22604000000000   -1.15309000000000
