37
 energy: -49.832175413556 gnorm: 0.332731570713 xtb: 6.4.1 (79825abcba525fcdf90b791dcacef51065a7a4e7)
C         3.19541911240587   -1.44579511139787    0.32094033765269
C         3.04551278471986    0.06460942280439    0.38611328795289
C         2.89944213458238    0.94024342704814   -0.92758268209031
C         1.19314879823092    0.99987539781077   -1.26386412614003
C         0.99450163286736    2.06389858155117   -2.33094203206801
O         1.90513744055239    2.06173397178846   -3.35953311522448
C         3.11199790412076    2.77107006365992   -3.22984239731631
C         3.34491769335558    3.43917799914308   -1.85623308285848
C         3.22257116372833    2.42676960225035   -0.62728856645935
C         2.21279533417554    3.12741495521510    0.26705184856157
C         1.48894076405366    3.43544276570966    1.30685423067905
C         4.40494745605891    2.42433590312147    0.32790373902363
C         5.37769378843203    2.76769982905402    1.12533847094680
C         4.36889308915877    1.89804648755576   -3.67043341906688
N         5.53744817398403    2.88958950849986   -3.89531315293028
C         4.75311083891860    0.85063060778891   -2.65311443488340
N         3.59060944702733    0.23501051059405   -2.03110023396558
H         2.33755459380661   -2.02558324824252   -0.01343973196167
H         3.38390726095777   -1.81584457160637    1.33677379497563
H         3.99646683837425   -1.79276695010324   -0.34632939200941
H         3.99640534253887    0.42476350762356    0.79357579029630
H         2.20781412708257    0.23984570200150    1.07060202064157
H         0.68006654764773    1.13497007640785   -0.31508562233985
H         0.99878604431615   -0.00922727504005   -1.73915351964185
H         0.93774344064414    3.04611632514975   -1.82531700487573
H         0.02891848627105    1.94858556566337   -2.85939625526956
H         3.09140018424949    3.62740246732254   -3.90931348585942
H         2.54641714397263    4.23360052937211   -1.78173155952715
H         4.34111541906684    4.01444544658110   -1.75486365067875
H         0.89610673568734    3.89462865770762    2.06481097863242
H         6.21629653772940    3.02302238883709    1.73613335797225
H         4.03801686694523    1.50646275771945   -4.63533366150871
H         6.34738504684493    2.56697002144002   -3.36551641507578
H         5.74586438114625    2.93441788752420   -4.89572262495523
H         5.34775500227286    1.35530601870689   -1.86836132883858
H         5.41659300029628    0.07794814702776   -3.06541634234791
H         3.71566346737780   -0.79367281854814   -1.92290994018217
