37
 energy: -49.855192500105 gnorm: 0.325586177079 xtb: 6.4.1 (79825abcba525fcdf90b791dcacef51065a7a4e7)
C         2.74566701678962   -1.34715033464087    0.50261772667455
C         2.83260689080501    0.16904213536575    0.54315326112992
C         2.90317520931917    0.94388448813442   -0.83833437417453
C         1.31900006347727    1.00288065318490   -1.55596010578414
C         0.99354867501332    2.17557532462899   -2.46652580366567
O         1.87280528841288    2.34451504471639   -3.50846104864047
C         3.19873494523023    2.76217157000180   -3.29878719700552
C         3.47843146619562    3.35086027286985   -1.84129298017689
C         3.34469666210008    2.39606011598246   -0.56821965675747
C         2.30039030671945    2.90911708057320    0.40983584286128
C         1.63577111772419    3.47209647072734    1.38007864535978
C         4.58008658233370    2.53876383048043    0.30577081688482
C         5.48096018666282    2.87405297542843    1.18670454040220
C         4.24746723922078    1.68279413656231   -3.63834655456893
N         5.42616757340810    2.49320913402822   -4.23260449302195
C         4.85396614468076    0.92891113683527   -2.47926902466808
N         3.88843758889740    0.20816698478528   -1.66343709867209
H         3.59087844253979   -1.78296627123973   -0.02613359673879
H         1.82696051602125   -1.73599303663294    0.04527571387300
H         2.83336025250388   -1.75435450407256    1.51938243349620
H         3.76512473131653    0.44096849328652    1.04951266420076
H         1.99493538304728    0.62102974869781    1.08627871822772
H         0.62533960560659    1.06172763091455   -0.72106081868426
H         1.30012266249181    0.00968889653492   -2.09926376871387
H         0.92420748366362    3.09757050520832   -1.85928076055000
H        -0.01216319367226    2.12817607038144   -2.92610030079747
H         3.40599752222179    3.59318403880337   -3.97839805084198
H         2.88779571263713    4.29543521768718   -1.65911632221486
H         4.57514359869971    3.69419828021898   -1.95513413258348
H         0.98988942617092    3.95064274451713    2.08053030283199
H         6.32159468516204    3.10221382005059    1.80540547297969
H         3.78574288056663    0.98254899177262   -4.33857274914518
H         6.28704828614176    1.94711640756627   -4.19475231424968
H         5.24249074238910    2.73381949240391   -5.20965898888077
H         5.41399228961655    1.56848614381352   -1.77113703398594
H         5.64050859371903    0.23903645675274   -2.81492290611158
H         3.44476476937926   -0.53740429246718   -2.24033478373017
