37
 energy: -49.858530861775 gnorm: 0.312709931501 xtb: 6.4.1 (79825abcba525fcdf90b791dcacef51065a7a4e7)
C         2.79607102791745   -1.40737330447410    0.19921272275102
C         2.92054899331345    0.07497249069944    0.50775357454336
C         2.95919436096184    0.87408558689895   -0.86111217529474
C         1.39093325829002    0.73844841916577   -1.60289233402780
C         0.97100318083103    1.99556053561186   -2.34692804954418
O         1.80452510940228    2.27955801741615   -3.40137031969512
C         3.08452591898209    2.81498640489977   -3.17464599052890
C         3.28760184002561    3.35637480479581   -1.76920335543374
C         3.24115879518630    2.37335516344883   -0.51152316667873
C         2.19269331947239    2.86108927985220    0.47500178142412
C         1.74169211566535    3.65663266806437    1.40438018928953
C         4.52369444770038    2.47315971009911    0.29813937165550
C         5.59047764225756    2.77331821825295    0.98509988483107
C         4.27263157968258    1.85811076812947   -3.61307621766039
N         5.35545811570209    2.71605641750698   -4.31355134140916
C         4.90748039901902    1.13012517591332   -2.45262579899887
N         4.02733396804150    0.26258752838778   -1.68449824018628
H         3.62759620584651   -1.79361559129088   -0.38668711615682
H         1.86906404421612   -1.54893975145879   -0.37087410523770
H         2.65386632164619   -2.03216670616026    1.09180828346752
H         3.83588174887166    0.31138133138160    1.06111613094218
H         2.04594664625474    0.44853358564913    1.05226662547726
H         0.79706960303250    0.58990581142613   -0.70459078665090
H         1.37585626165746   -0.11441966775324   -2.34744172967075
H         0.81623519822210    2.81533857910584   -1.62053925053006
H        -0.01975400985686    1.79634113936463   -2.79817475804642
H         3.18508829818663    3.69868069238400   -3.81055638197782
H         2.57835780204053    4.22932445979321   -1.67332550539768
H         4.29587083480800    3.91939110729774   -1.77416208079327
H         1.11700548698894    3.95154736810143    2.21653425932876
H         6.36760211993885    3.04133327353773    1.66756609151936
H         3.88340762067508    1.14342509366248   -4.34217049567510
H         5.74710252284916    3.31003336745252   -3.58240724057743
H         6.11130937802550    2.12261963062943   -4.66396204318849
H         5.42060008362722    1.81507296212238   -1.75141890491635
H         5.70275273020867    0.52414099586832   -2.90821851113914
H         3.57169782962900   -0.42447644689834   -2.32157895925815
