37
 energy: -49.852199623766 gnorm: 0.324189705224 xtb: 6.4.1 (79825abcba525fcdf90b791dcacef51065a7a4e7)
C         2.91306276453569   -1.25959581475566    0.43921358346767
C         2.90087250646586    0.24853297936430    0.62208024399209
C         3.04071623811948    0.93461052877405   -0.80045621352719
C         1.51138359354731    0.67492729296535   -1.58898928870034
C         1.06343619798840    1.93146822473153   -2.31748726870640
O         1.79102467426744    2.34702499347194   -3.40615133871120
C         3.07659629093096    2.86473694477894   -3.16999565702012
C         3.33452907901816    3.44447001717160   -1.76215525038233
C         3.20866102636511    2.44428063043640   -0.52359864527001
C         2.09949190090537    2.91127343328735    0.40487180545823
C         1.30256951415095    3.27510437791192    1.37057223263059
C         4.52795385356519    2.69299051026867    0.18915789240621
C         5.67526289523053    2.42807152829380    0.74910090494943
C         4.21487848058911    1.84807985330910   -3.58829714596171
N         5.21149272832671    2.67064654907023   -4.44234252860980
C         4.96977436192883    1.13599110438045   -2.49161896068410
N         4.07144992011818    0.33225010774212   -1.67656505815045
H         3.74165465634888   -1.53570630060422   -0.20970422590328
H         1.99496297508759   -1.58648457078385   -0.06538379661911
H         3.03508060578201   -1.81322597875969    1.38044739937876
H         3.75496079788681    0.55400514173489    1.23620829306569
H         2.00723981583673    0.57196873581705    1.16777388099832
H         0.75793074554184    0.47735629003222   -0.83072869891872
H         1.66942825158367   -0.20208573583513   -2.28744123798644
H         1.07508035005696    2.70046272419639   -1.52241385706323
H         0.04842520158519    1.74176442813388   -2.71582998223676
H         3.21868128481738    3.75481868851509   -3.78884681503620
H         2.57620798308167    4.26987075163870   -1.62827654673963
H         4.39994539690324    3.88950174384228   -1.74086816403398
H         0.57924756900158    3.42205532534336    2.13999606071083
H         6.64154640698566    2.46021920578684    1.20382866717520
H         3.70149030643714    1.17402683864153   -4.27817719774718
H         5.47011270900686    3.48018602608022   -3.87796039241665
H         6.04469569281614    2.09826904827967   -4.59862057330285
H         5.46212880263316    1.85349504887936   -1.80830967256274
H         5.71649004747096    0.52157268715882   -3.01329445381109
H         3.61255048922729   -0.38969455546734   -2.27132572848531
