37
 energy: -49.848289880441 gnorm: 0.321276907168 xtb: 6.4.1 (79825abcba525fcdf90b791dcacef51065a7a4e7)
C         2.54064406759688   -1.24106847938637    0.53970650807966
C         2.81627489673370    0.25109396742291    0.61400425999136
C         3.03607992195506    1.02721422997142   -0.75098355497915
C         1.52943808949187    1.00785864138637   -1.62146266513297
C         1.08660778344397    2.26337369541354   -2.35484152930521
O         1.81903795888384    2.58914916869621   -3.47049302295865
C         3.19239899672582    2.74779325586583   -3.21514802998431
C         3.47651618105027    3.42832337788367   -1.85099597146971
C         3.34990333231388    2.52484107262912   -0.54029656709172
C         2.20475018954927    3.12812663047412    0.25661412955832
C         1.38134897496198    3.49336093905558    1.19929639753246
C         4.65335426489822    2.57155888622167    0.24024495775065
C         5.64395973095303    2.37977517254231    1.06605128560067
C         4.23205486165748    1.60300499304999   -3.54120770155454
N         5.32690617911126    2.21866687972051   -4.44757985324859
C         4.94523069125023    0.94329975986639   -2.38543503295519
N         4.10880224842323    0.25245213863446   -1.41568440483098
H         3.40349607500820   -1.87380769512158    0.34216323416314
H         1.80530786245890   -1.53683543515282   -0.21936171776201
H         2.16306387849729   -1.60696459293572    1.50452205686731
H         3.75333741500718    0.39289585008302    1.16331234759833
H         2.08553954257922    0.84857669977058    1.17079133466449
H         0.77821312091018    0.74604936727073   -0.88065123977037
H         1.70696314578297    0.15602251930067   -2.34591084656613
H         1.00131257939597    3.16031011350513   -1.71307860855497
H         0.06775765675405    2.12257234714868   -2.76353599997454
H         3.43257544217177    3.54262997367751   -3.92645687912813
H         3.01558793116436    4.44314000386140   -1.67224159701735
H         4.59773882703119    3.69582275153115   -1.92115416278171
H         0.59581512072442    4.02185589584640    1.68963497606406
H         6.56386005371901    2.28404020574371    1.60096511565064
H         3.63077792214533    0.80909883815504   -3.99068342840460
H         5.82060386259536    1.45087551834118   -4.90312861859966
H         4.88815748151787    2.74483971438817   -5.20712428191422
H         5.48972867722591    1.72379276827369   -1.82108673979983
H         5.59878410911932    0.19016522405757   -2.84684149970179
H         3.71346503189924   -0.64138179830027   -1.77665866680039
