37
 energy: -49.849208002604 gnorm: 0.317869431936 xtb: 6.4.1 (79825abcba525fcdf90b791dcacef51065a7a4e7)
C         2.86044319551334   -1.46632245645681    0.14402485361792
C         2.83182193073509    0.01746684181940    0.46897318657429
C         3.02932752723638    0.92742741598738   -0.81431631266651
C         1.55613161809454    0.67794669697887   -1.70624193482514
C         1.12812234696677    2.01580589126176   -2.28693301391192
O         1.86797369552058    2.63242392006903   -3.26655746478341
C         3.21811648221580    2.93858506985786   -3.02187530773923
C         3.50622052513420    3.43849516163601   -1.55847494447084
C         3.23301456364903    2.38661291481240   -0.38836970565765
C         2.04283485394087    2.88497977178542    0.41505957978198
C         1.25421368691198    3.50938726927472    1.24465432435057
C         4.45287804863920    2.49623796537367    0.51181218109715
C         5.59747594178212    2.91425534412783    0.97570166469516
C         4.19186711051510    1.81920156246623   -3.54245732583565
N         4.99730017802547    2.34233403218047   -4.75771838267709
C         5.00663217924156    1.25532916246971   -2.40322643643139
N         4.18006567065248    0.38979824052579   -1.57561343115981
H         2.24438073058284   -1.60333165546840   -0.74231106779183
H         2.33106448931449   -2.02557644943640    0.92592967835646
H         3.87420079950295   -1.85080205713588   -0.03426357927555
H         3.53197637266128    0.32397848118880    1.25368184879311
H         1.83157554479896    0.26136438856673    0.84446323157568
H         0.86921330116009    0.36125600710922   -0.92551480568211
H         1.74995066033353   -0.15644850531228   -2.44663636843567
H         1.00672428508989    2.72639306089866   -1.44791082034957
H         0.10509322408297    1.87642999463482   -2.68555256165464
H         3.41613690918211    3.76263293861016   -3.71263100428154
H         2.84252902779386    4.34384656091943   -1.43967593235399
H         4.60509109054590    3.78763723404090   -1.49365517265671
H         0.49305763041706    3.87771070984987    1.89410146498926
H         6.44716041225029    2.99465589896407    1.61841984979628
H         3.73109243218768    0.94163647057140   -4.00225682028214
H         5.59360790772696    3.15708847234447   -4.61157479360508
H         5.52693805901986    1.53422205644427   -5.09343367929685
H         5.48688163899823    2.06329191344678   -1.81953727402174
H         5.78725989412847    0.55935977639543   -2.74010417535268
H         3.88591520414941   -0.40844031843522   -2.17713129907823
