37
 energy: -49.857215554228 gnorm: 0.330984224258 xtb: 6.4.1 (79825abcba525fcdf90b791dcacef51065a7a4e7)
C         2.59469965663292   -1.23368335623026    0.47749045595059
C         2.95712911886333    0.23836025011032    0.57635290341056
C         2.91127407114135    1.02129734164395   -0.80160771698699
C         1.24587652465902    0.98495981559942   -1.30480621433674
C         1.04215347992101    2.02360478680798   -2.39566589096644
O         1.94382344995096    1.98568520404116   -3.43143384112351
C         3.18749554216710    2.61819926971962   -3.25911078446754
C         3.50505394128204    3.31401502372070   -1.91307752293098
C         3.33590521719532    2.44424332553618   -0.58449561633731
C         2.31154172544074    3.10855394858653    0.32091400901544
C         1.53564852718793    3.69236768088539    1.19107878772537
C         4.63120198191446    2.46559180244407    0.21059082567513
C         5.69208272651871    2.65450044610638    0.94467650788306
C         4.34607879698916    1.71175672592318   -3.66738001406041
N         5.50246685902392    2.69770865786880   -3.96723811594922
C         4.81152497120956    0.85527822610464   -2.51436411723521
N         3.67762689563041    0.26565358801024   -1.81872254514497
H         3.12527437310639   -1.69045034096152   -0.35542624984420
H         1.51824171576166   -1.39946114764347    0.34281297601496
H         2.84578298707775   -1.78008798740014    1.39711806998903
H         3.96590364534933    0.30856791497265    0.99751575872133
H         2.22379827588989    0.73946390513107    1.21829731023785
H         0.69253674330384    1.21448421241769   -0.39771291427326
H         1.00336386554870   -0.05000394596907   -1.69468146937962
H         0.98731087069122    3.03053808286848   -1.94101494586246
H         0.08401301423231    1.77048985604586   -2.88842490968085
H         3.12533670494646    3.46240032211763   -3.95111604014431
H         2.92957215031974    4.27821809341730   -1.79734549059697
H         4.62459233597229    3.58361177588421   -2.00008139565990
H         0.93391233654379    3.96006628205279    2.02956148983658
H         6.41671618650722    2.91069653086782    1.68682506690495
H         4.14120305894730    1.07624148093468   -4.53224744618099
H         6.40633849929393    2.22521702631840   -3.94414329123425
H         5.42016395424374    3.11596549057913   -4.89705178785024
H         5.43327916872161    1.48757321960302   -1.85272890961755
H         5.52351720395974    0.05672929868915   -2.76461658498173
H         3.04982078906352   -0.24732335024716   -2.47312852980533
