37
 energy: -49.855250868137 gnorm: 0.328317038768 xtb: 6.4.1 (79825abcba525fcdf90b791dcacef51065a7a4e7)
C         2.51363510956920   -1.21019449937333    0.54954786100525
C         3.04056234855319    0.21436945270474    0.58127338430377
C         2.89348979270857    0.95814745495059   -0.81121812114525
C         1.26077570499567    0.98423758575861   -1.41258501763993
C         1.04544790640579    2.07556494600543   -2.44839379400169
O         2.00836374809952    2.14183820775023   -3.42597387397986
C         3.24606944179378    2.76082778088531   -3.17813102813270
C         3.39374606919074    3.35818270566998   -1.84640865152684
C         3.32035666041691    2.42155985377486   -0.55505446895757
C         2.25558838343780    2.92699264665497    0.40473823247391
C         1.37570324025541    3.62281046296139    1.06932473316390
C         4.63091396455617    2.48933509198112    0.21192534722045
C         5.73910360623683    2.68047317181722    0.87178760696088
C         4.38458331475037    1.75830728122955   -3.55988633962730
N         5.51957681293099    2.64826726104958   -4.12469642876987
C         4.87638005085983    0.92608796450374   -2.40006385351271
N         3.81756187775411    0.21582158810330   -1.69883278793907
H         3.03461163824105   -1.77501824576857   -0.22081143112614
H         1.44596807157343   -1.29942452406923    0.31183564663541
H         2.74094187831486   -1.79020474522454    1.45466418274567
H         4.09421576565164    0.26738504727705    0.87612442390235
H         2.49998358375648    0.78188352590830    1.34721985472430
H         0.66109708580383    1.13234456396546   -0.51808264532939
H         1.15470760112253   -0.04039220437984   -1.88253016612133
H         0.94749630297338    3.02814879087317   -1.89466158592226
H         0.14140586109869    1.82334788944769   -3.03491430292124
H         3.37273975792379    3.56020756288953   -3.91322082328172
H         2.66484916405579    4.21417382595824   -1.74517000940849
H         4.45167304728984    3.82013881214832   -1.81470106564164
H         0.60357520906580    3.90440225745965    1.74853503084196
H         6.58498284819360    2.49260557521333    1.49685454309256
H         3.98243980268681    1.10523471463553   -4.33810622388910
H         6.19344953474237    1.94097337966994   -4.41862937190528
H         5.05706057268515    3.07532963756843   -4.93089892490218
H         5.45018621969911    1.49361076103696   -1.64322784425841
H         5.60522968294079    0.17152946863327   -2.72665123341607
H         3.35027670510165   -0.33345633272519   -2.45081109380707
