37
 energy: -49.853143167270 gnorm: 0.326778804035 xtb: 6.4.1 (79825abcba525fcdf90b791dcacef51065a7a4e7)
C         2.89909639896333   -1.42961859279831    0.27943168301438
C         2.91851564838326    0.06917695505002    0.52697173232617
C         2.89270931165972    0.93307162904507   -0.80227191396108
C         1.25803778049268    0.82533285225273   -1.38905933066117
C         0.97310302276382    1.78488479042120   -2.53288342155278
O         1.96181971601560    2.00194897955906   -3.46163759481540
C         3.10598091490933    2.76872347710856   -3.17978378004942
C         3.16534264618982    3.30722922071633   -1.75084581380765
C         3.22964907244526    2.35634440371571   -0.46946891446033
C         2.22138102251022    2.85762849162326    0.55156276089726
C         1.83830579786632    3.78162396040463    1.38793668011395
C         4.54346093017181    2.50641468060495    0.28005718728483
C         5.77952465780266    2.80217047650670    0.57110906142283
C         4.34665362261837    1.97233504312855   -3.54826864611216
N         5.49440986913593    2.91572863697071   -3.98634805563763
C         4.79642693837746    1.01835831479444   -2.46786428372679
N         3.68934314906681    0.28711352972587   -1.87041486815903
H         3.74694014555622   -1.67257034710918   -0.35777414975405
H         1.95742789015549   -1.76223938251109   -0.17554724830061
H         2.98475102770587   -1.93990208312008    1.24875611392190
H         3.88747815290570    0.28681842420497    0.98922400964712
H         2.10055560409197    0.45362058582675    1.14674272264731
H         0.62949449356826    1.02380430223259   -0.52463638017997
H         1.28275870587976   -0.26934033080451   -1.67723391344130
H         0.59074274792461    2.73144739709973   -2.10691428162052
H         0.12953164418162    1.32809851877018   -3.08483034100657
H         3.02389299411328    3.65350647067559   -3.81683247468933
H         2.21493464396865    3.90748842999392   -1.64752941484596
H         3.99806414577907    4.10404314007903   -1.67817675680295
H         1.21769001627495    4.23625743377482    2.12614176462350
H         6.77113179295939    3.11113867916809    0.82164564639115
H         4.13633540693917    1.35083565426343   -4.42197004108427
H         5.88428132852793    3.22286368361467   -3.09503780484378
H         6.26732737196906    2.43098399827306   -4.44882743870443
H         5.32997741728265    1.61731058873128   -1.70581674658731
H         5.55392068823350    0.34819738924597   -2.89719769653188
H         3.07745562464084    0.02397615733177   -2.67159238909972
