37
 energy: -49.854372785376 gnorm: 0.323995882826 xtb: 6.4.1 (79825abcba525fcdf90b791dcacef51065a7a4e7)
C         2.65593102683485   -1.25420950622054    0.44233481391209
C         2.99341965019709    0.21962958114251    0.59045993410405
C         2.90061586271418    0.99075105569101   -0.79179466421428
C         1.24640286686581    0.97445189482487   -1.33160188263043
C         1.00748760095178    2.00553803444955   -2.42249241684214
O         1.97852873133960    2.04682531518311   -3.39338703507518
C         3.18117846279911    2.75690716122268   -3.23243068250648
C         3.43550537469719    3.37599565499941   -1.82390554825060
C         3.31695038624477    2.43236577565810   -0.54103713477320
C         2.31102040472242    3.09092912943266    0.38890639864491
C         1.46009891937571    3.84673405897999    1.02508801137637
C         4.64514720166001    2.35616054732391    0.19414852900474
C         5.62820076479065    2.59285577915830    1.01732367005036
C         4.33899827797698    1.84326031879944   -3.62795292311878
N         5.65496037336780    2.53652255585620   -4.06024990154388
C         4.75149852599159    0.90008174116088   -2.52346257180898
N         3.78071108435527    0.20796536824223   -1.68928877339837
H         3.41322875031384   -1.76329355217617   -0.15031131917029
H         1.65529934857778   -1.50508362970884    0.06792806074012
H         2.78990412849894   -1.78304579432375    1.39611633853200
H         4.03849002099614    0.30854360811827    0.90645918737648
H         2.36393943236614    0.78246170620419    1.28899144673609
H         0.63185229744089    1.19361681826253   -0.46213138208028
H         0.96728790135833   -0.06574503707922   -1.68095882181431
H         0.89169264561647    3.00435996427762   -1.96143261899688
H         0.07761975729743    1.70498861581837   -2.94203799807410
H         3.15942836931692    3.52132887762602   -4.01383760896793
H         2.77383699515855    4.27761619809988   -1.67049071234916
H         4.48771303468790    3.85168007320344   -1.80970421610927
H         0.80782186777081    4.41061182988460    1.65228714225973
H         6.50441535719930    2.46311364067866    1.61475949891221
H         3.99979088947650    1.27331881652201   -4.49625840010169
H         6.23713148518381    1.82001204251223   -4.49436409819336
H         5.49558759880962    3.28311619909660   -4.74103199685799
H         5.29082288658934    1.47999830028741   -1.75082914812060
H         5.37586531158316    0.08156261300843   -2.90743155555655
H         3.16144774652042   -0.46219059374517   -2.19221714246013
