37
 energy: -49.852911479798 gnorm: 0.319966686724 xtb: 6.4.1 (79825abcba525fcdf90b791dcacef51065a7a4e7)
C         2.91743005360455   -1.35691259385713    0.30738637022522
C         2.95280543647777    0.14777006715575    0.51407441889166
C         2.84767585773840    0.97063783105439   -0.83711211922760
C         1.16766813484064    0.98717448880571   -1.29029941076972
C         0.96690384417350    1.83498941958335   -2.53575709047887
O         2.01255632573787    1.76270421992707   -3.42381542969917
C         3.06989690624054    2.65827532883389   -3.18617528621221
C         3.13961767149309    3.36283481416522   -1.85099190527666
C         3.31079350987681    2.40817304154971   -0.58230607397489
C         2.46147442658707    2.96394009188943    0.54914252439408
C         1.57362239190529    3.43472659240580    1.37987371760201
C         4.72456390317122    2.49802868207048   -0.03131495164573
C         5.82349971880923    2.88170879070223    0.55619329122642
C         4.40909651875393    1.97556545697866   -3.60280329230725
N         5.53447873839616    3.03926304356372   -3.56658523924206
C         4.72215279843657    0.90216685695109   -2.58818393943863
N         3.64789540392850    0.25074140974888   -1.85407550503072
H         3.79197711086085   -1.70154569668882   -0.24060205661892
H         1.97609008251906   -1.65827648887398   -0.16952123067253
H         3.02085466961290   -1.91009770311211    1.25110528599332
H         3.93614845287215    0.39394708205582    0.92924510861457
H         2.22668738288532    0.41081139720863    1.29159191109509
H         0.54769877746058    1.37523623836268   -0.48610373073512
H         0.84422083481943   -0.08188819293495   -1.47591169124769
H         0.73602974112862    2.87694328914586   -2.24479465543590
H         0.05633144324398    1.44798443281633   -3.03173774891944
H         2.97141356407290    3.48947042450446   -3.88961409381701
H         2.16333340752578    3.89868405999529   -1.66661352725747
H         3.96245084413613    4.17074536254517   -1.91299528347484
H         1.02529293949426    3.84037923671537    2.19937540546612
H         6.86414925476120    3.12365334060927    0.56129083985294
H         4.37363891916079    1.61313252992278   -4.63296565901727
H         5.81325385615286    3.31794263145668   -2.62563477513585
H         6.33563099410363    2.74590504291458   -4.13082114497742
H         5.41199853846179    1.31220180746942   -1.82652746623370
H         5.20442275395578    0.06949472187465   -3.11857288354009
H         2.96759811105071   -0.24317466645089   -2.46952293765903
