37
 energy: -49.855458264731 gnorm: 0.315970340797 xtb: 6.4.1 (79825abcba525fcdf90b791dcacef51065a7a4e7)
C         2.82531281647640   -1.33717875914862    0.37704586800697
C         2.96043418086220    0.16551562341664    0.55507139165000
C         3.09161434806289    0.96705561110308   -0.80661655275187
C         1.53994876195817    0.83299705535348   -1.58278685871720
C         1.00490449720584    2.07907800821250   -2.26927879816083
O         1.72978321613663    2.57098040810719   -3.32750597036373
C         3.08977195778085    2.85137022588495   -3.10772943663748
C         3.45600535029103    3.40996164118033   -1.70966007071560
C         3.32136967151674    2.45988889371534   -0.43314958524423
C         2.13614614656142    2.89823274650607    0.41153711389832
C         1.12711938115628    3.28628202480602    1.14045292228727
C         4.64350900991494    2.68506100355659    0.28215250223960
C         5.67566239629420    2.63705311670595    1.07738257298936
C         4.12706646244978    1.76434930981799   -3.64691269631941
N         5.08218737466940    2.51422874861904   -4.60851256824858
C         4.94786357416272    1.05902897798937   -2.59408006432775
N         4.21248660624161    0.35383094163219   -1.55522699433613
H         3.62417137454564   -1.77983944402079   -0.21436969583958
H         1.90944517971694   -1.68676275812042   -0.11626893796500
H         2.86592933674603   -1.80338379145814    1.37118819907598
H         3.90916368093579    0.29790803292356    1.08640734731417
H         2.09817517099156    0.56274466399801    1.10251098557761
H         0.82404364185740    0.46514367862753   -0.85213757922718
H         1.62984030999132   -0.02447037246410   -2.31670389210541
H         0.79509352269544    2.88546837821202   -1.54171864083830
H         0.02359172077505    1.79457809033830   -2.69471598767862
H         3.23694369952149    3.67610876210877   -3.81026572545024
H         2.86829021419175    4.34771433589036   -1.48723802921654
H         4.57329926397769    3.70066088868321   -1.73734698109114
H         0.36148797795641    3.44035300657023    1.86631304568554
H         6.51759762854753    2.87540087786354    1.69044865384471
H         3.61099403176168    1.01250941198068   -4.24878924852612
H         5.67371053114127    3.18489879524633   -4.11752611343304
H         5.78297469707008    1.92600068726392   -5.06584274142160
H         5.59923986927807    1.75396666775000   -2.03113520166671
H         5.65291493878187    0.36558881950045   -3.07291505305375
H         3.83192250788145   -0.52760098120189   -1.95992660124684
