37
 energy: -49.854433168658 gnorm: 0.318125784525 xtb: 6.4.1 (79825abcba525fcdf90b791dcacef51065a7a4e7)
C         2.79741681881110   -1.50049233235493    0.23925413179019
C         2.91651514622935   -0.00296826789442    0.46570179061306
C         2.98485503051364    0.87506203389008   -0.85272951028307
C         1.34452264615590    0.90749136089885   -1.43267445473253
C         0.97817105734553    1.99018574356761   -2.43458297156025
O         1.91383059751529    2.17886226648811   -3.42261347240533
C         3.14681251629264    2.78006450024159   -3.11471573918372
C         3.39475711738985    3.32849861177723   -1.74533595127446
C         3.34144423734298    2.32185124162230   -0.50676305799384
C         2.29716977200469    2.81307232975946    0.48247331112229
C         1.45743538333319    3.46202989697814    1.23992674377835
C         4.59241706467849    2.49705912081653    0.33868428172980
C         5.55294985819871    3.09090730476176    0.99041841493074
C         4.32323189817546    1.89037645133612   -3.59570408805768
N         5.29226933765004    2.87816477140997   -4.29175733239490
C         4.91096432716999    1.10283407744496   -2.44941057364268
N         3.90949884361907    0.25066643350631   -1.82637249440225
H         1.83318573069320   -1.81873564716631   -0.15173876855786
H         2.97990491919774   -2.05434682195137    1.16894509964690
H         3.60006207634041   -1.74760961922660   -0.46927211708700
H         3.84280161157569    0.15979296923895    1.02733821740864
H         2.08898655321630    0.31117197001775    1.11183177626439
H         0.67879290086010    1.04731524913568   -0.58477245346659
H         1.31935905466950   -0.06850718256473   -2.00604931360328
H         0.64537440811890    2.89455910696834   -1.89145769495466
H         0.05968885170010    1.66026254586687   -2.95655317388654
H         3.19584312891250    3.64665917997828   -3.77956164002413
H         2.69174250487183    4.17968079585420   -1.50970889170587
H         4.44341534509227    3.81172691285403   -1.72472911289643
H         0.86027041109677    3.73902499574493    2.07865793782304
H         6.24669738365060    3.26334277104560    1.78445556925969
H         3.96319704390558    1.14243946521401   -4.30620710582694
H         5.92179746568164    3.24246605304593   -3.57639409102491
H         5.87703353597206    2.28003365852422   -4.88044741626604
H         5.28493702927562    1.76105584708876   -1.64254942768306
H         5.76185365994671    0.50921679880369   -2.81113629345607
H         3.40699982306075   -0.22857004728525   -2.60313511523584
