37
 energy: -49.857014751954 gnorm: 0.324080098465 xtb: 6.4.1 (79825abcba525fcdf90b791dcacef51065a7a4e7)
C         2.45617535940925   -1.30338208390632    0.47843581509593
C         2.75451136958725    0.18460825914661    0.54859022654606
C         3.04176356692634    0.94466569715028   -0.81290436100101
C         1.58370248990561    0.80781781122045   -1.75280259105855
C         1.16981384209315    2.10916680125416   -2.42022171149060
O         1.94006743920332    2.70795425063405   -3.38739535805049
C         3.30844368634755    2.86695911559519   -3.10676490496972
C         3.52897351336303    3.42665191489184   -1.71448611252053
C         3.29600797600868    2.41082871795316   -0.50449671942647
C         2.16537608542679    2.94427840899920    0.36008344723918
C         1.59030812002862    3.77806131498584    1.18114279303742
C         4.48864322446345    2.51616654570978    0.43195245405795
C         5.59621641397177    2.66571047023471    1.10348397199611
C         4.20535546671207    1.62558920637801   -3.52153356181760
N         5.18928004931246    2.22193054989903   -4.55860581635197
C         4.99941235927514    1.00831445421675   -2.39543998146136
N         4.16413876210321    0.24588915500983   -1.47983912009199
H         3.25896082321679   -1.84783224802117   -0.01451992809039
H         1.47955165323473   -1.57376138955037    0.05714830547756
H         2.31261876342335   -1.62688999966294    1.51865211012769
H         3.67186218923320    0.33912934416467    1.12697074151708
H         1.95698562434474    0.72159831206760    1.07448564242670
H         0.85886556164466    0.51978046210653   -0.99561666263208
H         1.78429653068038   -0.00107146167671   -2.51923932487303
H         0.87602645842919    2.85448570041380   -1.65745138693967
H         0.20238410517803    1.95612842817652   -2.93555726341775
H         3.59204460209696    3.63192302366334   -3.83464618081563
H         2.81463848799921    4.29633183240629   -1.62706142401377
H         4.57009117503416    3.91312961911184   -1.60032935718076
H         0.82198041745586    4.13319782247867    1.82948907946357
H         6.48639578802028    3.01046756436061    1.58331498269794
H         3.60948326120289    0.82053456603385   -3.95819442626022
H         5.70932670961512    1.47025429880779   -5.01170618000910
H         4.58706539326180    2.58778840956475   -5.30005813798393
H         5.54171416544071    1.80289296517997   -1.84891447448277
H         5.65835827743855    0.29044180893933   -2.90307052490414
H         3.83480487642354   -0.65873766129663   -1.87823911292038
