37
 energy: -49.855936416449 gnorm: 0.319433818798 xtb: 6.4.1 (79825abcba525fcdf90b791dcacef51065a7a4e7)
C         2.59036518562428   -1.24229028802599    0.39840853597591
C         2.69605773055842    0.26753338488266    0.52994879695637
C         3.03090325308906    1.01467515012198   -0.82781639068124
C         1.59640063675138    0.74603956087643   -1.77550584155201
C         1.09938986434749    2.07767027682272   -2.31402345291333
O         1.85643368527545    2.52455428570015   -3.36969443006236
C         3.19589749671862    2.87031533016818   -3.11914393603224
C         3.42794265871241    3.48654783679789   -1.75546535091893
C         3.27179577267141    2.47429246796543   -0.53023018515527
C         2.20038472437560    2.99396662080876    0.41444592158583
C         1.46654540758931    3.34172282452362    1.43453463193021
C         4.60377729768341    2.44618044691653    0.20151216147014
C         5.62487668486611    2.52864300426692    1.00810512767453
C         4.18485465276906    1.77303291219018   -3.51273188474264
N         5.22828779680755    2.48300508690793   -4.41074982913161
C         4.95353024921807    1.08659480402326   -2.40929100677533
N         4.19658993502714    0.32544907173219   -1.42694799567664
H         3.55342409469520   -1.70808199049566    0.19978458357961
H         1.85623667692080   -1.55524441537353   -0.35491546143886
H         2.20850801783827   -1.66685437474723    1.33715570533168
H         3.49050080269735    0.47613789655116    1.25470922291507
H         1.75629672302329    0.68339598271423    0.91057875930149
H         0.88153258202162    0.31340794903658   -1.08017989628919
H         1.87499307917999    0.03584209885811   -2.61214848214322
H         0.94224617924860    2.83261054610913   -1.52092767784254
H         0.09063756299126    1.88012281734996   -2.72427406712076
H         3.37891770781759    3.66913373613886   -3.84288640985228
H         2.71125000025004    4.34157429986359   -1.58358708396131
H         4.52578262130371    3.82369308354194   -1.87670395141760
H         0.67974128186501    3.91987964854384    1.86287587494020
H         6.65460772720954    2.42773316136724    1.27453667572880
H         3.72613148676443    0.96896530295292   -4.09316078352648
H         6.12113964594687    1.98952119366671   -4.41815776400469
H         4.86707957947227    2.38247616618799   -5.36242654447545
H         5.54278393604219    1.81594328877236   -1.82195186347525
H         5.70067994850866    0.44516190879805   -2.89670335209187
H         3.87585685948131   -0.53298539489556   -1.92268340912950
