37
 energy: -49.857560848646 gnorm: 0.322727510230 xtb: 6.4.1 (79825abcba525fcdf90b791dcacef51065a7a4e7)
C         2.73823014243338   -1.45268581602644    0.34713738751370
C         2.90408829051523    0.05128574956944    0.48352610433077
C         3.05658693369162    0.89892771675788   -0.84768233359544
C         1.59417298052639    0.70784830684152   -1.77121480180865
C         1.07396438925273    2.00579645216508   -2.36701252140985
O         1.77123586615720    2.57874834188220   -3.40277335076819
C         3.09695107402809    2.95269881829433   -3.12147318926011
C         3.46458730673372    3.40409541286768   -1.70365609268984
C         3.35823236956811    2.36956288516014   -0.49176701221596
C         2.36071135352003    2.97564205952603    0.48189396783992
C         1.46936850103252    3.47908884307858    1.28941169112345
C         4.57705877159218    2.45824222519495    0.41211916404620
C         5.42500392161310    2.84864418004854    1.32240026372414
C         4.09427356275637    1.86101336151256   -3.63697836240584
N         5.08393853380189    2.62550873355166   -4.55095840298258
C         4.87795894257156    1.12056421444237   -2.57999515248812
N         4.17640353798560    0.29697679946619   -1.60694682864473
H         3.61514692778453   -1.91014969091402   -0.10633764113062
H         1.87263231211797   -1.67947906052093   -0.28822645987671
H         2.51129925382973   -1.83298819200241    1.35271596867637
H         3.83125246973835    0.24135612204388    1.03504505270216
H         2.04164354349125    0.51004757067499    0.98021339987791
H         0.86989939616559    0.20754391439451   -1.13339985436141
H         1.85961150056040   -0.01379320193435   -2.60232310816390
H         0.88716023810849    2.73763431172958   -1.55883716127702
H         0.07256126508991    1.80200559471991   -2.79195115221908
H         3.29708416753693    3.82589282889873   -3.74828207282654
H         2.81102600854137    4.24401554273063   -1.32728848770654
H         4.53616659209248    3.82523730058092   -1.79296260576240
H         0.84222141725325    3.99798315868645    1.97806071635189
H         6.21902234269177    2.95195307894655    2.02977332083210
H         3.47596368454340    1.12444668052437   -4.15564182625135
H         5.87016332478058    2.82879178129743   -3.93346975090549
H         5.51684466250415    1.92507591185944   -5.15779623693905
H         5.42730324686813    1.84839751844686   -1.95340445214477
H         5.56485048836158    0.45355434978294   -3.11899187910826
H         3.78762355615060   -0.60806752496188   -1.94647287459595
