37
 energy: -49.850162927740 gnorm: 0.329421751067 xtb: 6.4.1 (79825abcba525fcdf90b791dcacef51065a7a4e7)
C         2.74913550271170   -1.42096493574859    0.51467684652346
C         3.08260770569873    0.06054861736554    0.55889402169028
C         3.01478011259532    0.78475296850732   -0.84993390250022
C         1.42274667912800    0.80745436677677   -1.55206802281320
C         1.07873262700043    2.05529656309204   -2.34881482898365
O         1.87556626978089    2.28220398782242   -3.44463919537661
C         3.12321357959640    2.85673672342414   -3.14500962747473
C         3.32562084869327    3.36329472872839   -1.67964079394345
C         3.20066032480803    2.28744759897956   -0.50610687136963
C         2.11626343346587    2.77583547985956    0.44044294110500
C         1.32718380108003    3.51427504752308    1.16989197539385
C         4.44087932699764    2.53537869722499    0.33698208009886
C         5.59155907259393    2.74490038809867    0.91323992617964
C         4.30194440144199    1.98796768111991   -3.61026776178465
N         5.41186914722030    2.78720877681793   -4.33726856841517
C         4.91797213165468    1.11681866082698   -2.54197452511211
N         3.98586523402600    0.25295879835974   -1.83329820622094
H         1.67450343333776   -1.53110284122756    0.38455611820847
H         3.12730912974256   -1.89213159451089    1.43084751046932
H         3.18125242826072   -1.97901949344737   -0.32744302697607
H         4.10428863371717    0.19453763260561    0.93057713517317
H         2.43283481151400    0.58152005936215    1.27118298122806
H         0.72892118972561    0.66894278545159   -0.72677695359105
H         1.30825519745845   -0.14181457337023   -2.15848806816713
H         0.84474873401678    2.95538802479500   -1.74988515509351
H         0.12118530250507    1.81145212501621   -2.84736751602182
H         3.14946416984911    3.78420089003885   -3.72339664143877
H         2.52801746642702    4.13219908823908   -1.46313283219340
H         4.35815497900783    3.87737803004176   -1.62298447545964
H         0.53645307662786    3.91423893216706    1.76283050415271
H         6.51181170427360    2.87416755070490    1.44043977635161
H         3.83589424450988    1.45635017130643   -4.44335205769459
H         5.99915950704048    3.31671415351472   -3.69269138594154
H         5.99232710262516    2.08190742201756   -4.79757778143621
H         5.49428561937478    1.72118269848420   -1.81620371944544
H         5.67594881727241    0.44384046467510   -2.96601617145910
H         3.60098633339750   -0.38293285006085   -2.56339620118466
