37
 energy: -49.846207093809 gnorm: 0.324045669182 xtb: 6.4.1 (79825abcba525fcdf90b791dcacef51065a7a4e7)
C         2.80362651798449   -1.34518752968852    0.38253464136595
C         2.68775373512366    0.16136366406024    0.54038987925338
C         2.99125310865784    0.92610744376974   -0.81494171383945
C         1.61728185948639    0.71672843408165   -1.86205277167890
C         1.06420219036269    1.99113063642593   -2.47870761440278
O         1.82952584995926    2.55723723043122   -3.46919481584261
C         3.13903283773477    2.92098782360601   -3.10951925795431
C         3.30012416091814    3.42477045308630   -1.68001981693047
C         3.21405248468413    2.39210566730482   -0.46493169836488
C         2.12334755999085    3.00794234291274    0.39617445791033
C         1.52705182084170    3.19599235680941    1.54033536603659
C         4.50325712632995    2.48464190655000    0.33494360872365
C         5.53980556636133    2.55672776776832    1.12260291601377
C         4.24104887601827    1.82512396066391   -3.57416806201830
N         5.03759983180312    2.46551287685346   -4.73806584705989
C         4.99842679436794    1.29913379236433   -2.37861201929155
N         4.24933638287479    0.46850365603830   -1.44790455290581
H         1.89929961628723   -1.80595948298635   -0.00961062347282
H         2.97707836576849   -1.82076444313192    1.35625074682143
H         3.63648425867501   -1.59416876440423   -0.28953093337284
H         3.48312371825697    0.49671471979941    1.21482265677187
H         1.68625858803311    0.51427610670378    0.81137308502804
H         0.83059894977184    0.30202922420947   -1.23688144951734
H         1.92138166912330    0.01350810061598   -2.69570111494266
H         0.79023533349449    2.70807822059417   -1.68211601321059
H         0.08547665555940    1.85035643563056   -2.97589040014039
H         3.39412974053395    3.75183427489306   -3.77286694683997
H         2.55335575669800    4.26854370642618   -1.61186987234447
H         4.32297409412176    3.94157256052632   -1.53749996119936
H         1.02539492094992    3.52223243274376    2.42278085607626
H         6.51427302874408    2.59294893005198    1.55919865290488
H         3.68342750066890    0.99798355526835   -4.01997802286191
H         5.63314831127910    3.23741376068766   -4.43763833670991
H         5.57106749402496    1.73768710041674   -5.21967554709744
H         5.48653573123864    2.07671421593790   -1.76115372979221
H         5.81774659763608    0.64812565968903   -2.71348975453930
H         4.29489747143621   -0.54420728038306   -1.68847426333976
