37
 energy: -49.854008294120 gnorm: 0.322622210729 xtb: 6.4.1 (79825abcba525fcdf90b791dcacef51065a7a4e7)
C         3.00235004179233   -1.44138186730542    0.22806952248982
C         3.00965155293188    0.06090856005296    0.45414791010372
C         3.01582054267433    0.94177061902404   -0.86415122994280
C         1.42531251966811    0.76362333767548   -1.54725144674142
C         1.03238273223121    2.04011645251397   -2.27280833570579
O         1.77392890572562    2.37532801434147   -3.37960748529736
C         3.07465649940081    2.87596090701934   -3.19531427897125
C         3.39390759236661    3.38611602504117   -1.78494603186811
C         3.26840673261466    2.40402379357540   -0.53195425261646
C         2.16693602006500    2.86045144791077    0.41082454159662
C         1.48473216276964    3.22272887943545    1.46124754910229
C         4.50833702387063    2.60706531805709    0.32347488317187
C         5.35278533418976    2.77146110817754    1.30322860275023
C         4.14173119604746    1.92322699467188   -3.66296183223971
N         5.23845232524268    2.74499370702063   -4.38487019112872
C         4.86423512946017    1.14541294181149   -2.58935362371089
N         4.04317079025630    0.31160332852287   -1.72453333249472
H         2.15841175665715   -1.86314564826008   -0.31394462016369
H         3.06923839575563   -1.93778407795202    1.20453907734136
H         3.87407028621767   -1.78191242000834   -0.34765486158283
H         3.91354852512015    0.27557443634273    1.03451170755613
H         2.11880760404161    0.28135944344647    1.05312210529373
H         0.81061513430117    0.66422590492530   -0.65621166528230
H         1.39592351623415   -0.10736370723464   -2.27008126497388
H         0.99413035868566    2.83011228568750   -1.49945641332675
H         0.04299495450596    1.83116302722000   -2.72265504516797
H         3.20291467288491    3.78179731482205   -3.79399671150752
H         2.72957440097107    4.29239639487210   -1.67734464376112
H         4.45226484902687    3.84658123020618   -1.82328678449037
H         0.78765666218600    3.53149897838547    2.20659914714835
H         6.20699946657234    3.13305777343855    1.83339902354569
H         3.80500768453245    1.18721308881109   -4.39695786557967
H         5.86572455035164    3.17748274164218   -3.70645406113552
H         5.82591286283067    2.14332695852401   -4.96723884690111
H         5.54520054219100    1.82910663532961   -2.04807233919238
H         5.56721513621093    0.45627658337353   -3.07735958285314
H         3.50874358424220   -0.38943319229517   -2.27993264589328
