37
 energy: -49.852976200795 gnorm: 0.323016417493 xtb: 6.4.1 (79825abcba525fcdf90b791dcacef51065a7a4e7)
C         2.81538608116171   -1.41986250323450    0.29323142950420
C         3.05627676595513    0.06405477910308    0.51232605436838
C         2.98949953183060    0.89216011856890   -0.83810017229614
C         1.36563856987652    0.75639312234969   -1.44860900119158
C         1.03975077059861    1.96815506385026   -2.30633356569251
O         1.90463910750124    2.15058374553896   -3.35797505255729
C         3.10576078757269    2.84151270098185   -3.12045991565387
C         3.24030270979723    3.44027769342983   -1.74408450497599
C         3.32158289567159    2.36856607704134   -0.56295293281113
C         2.35560094153767    2.84951460003420    0.50754377875616
C         1.37682340073045    3.26069289315971    1.26448665644880
C         4.69449198709941    2.56776371842961    0.05821773058200
C         5.54016641591976    2.98446106612000    0.95890323546011
C         4.27124829041703    1.92530003759720   -3.59156722024555
N         5.28168721556882    2.91366468801818   -4.22512695671022
C         4.90275893594265    1.01224162479311   -2.56825892879753
N         3.90700076462979    0.26395544729158   -1.81604039863012
H         2.00129483171232   -1.54776639886022   -0.41725564139798
H         2.58715632785904   -1.94183610294251    1.23122755906867
H         3.68659102957216   -1.92727449691262   -0.14363332622558
H         4.07217974227909    0.22540166683302    0.88894474303079
H         2.27266400459368    0.43255265929528    1.18398963999419
H         0.75080239944448    0.75093664943072   -0.55215413465047
H         1.27355407032744   -0.18106023817892   -2.07683406737831
H         0.90951458487155    2.83954296575526   -1.63749014853784
H         0.04469297048101    1.83542145826207   -2.77233092084745
H         3.17146238568536    3.60276391006639   -3.90250231122186
H         2.40162027082461    4.15151838572402   -1.48911546439537
H         4.19913239612663    4.08123694656512   -1.68547410663961
H         0.69956329774080    3.84499819455589    1.84475238796828
H         6.38456104363177    3.16475281521771    1.58819429689337
H         3.84759316937247    1.31328544479244   -4.39144461482821
H         5.66632685309418    3.62247687967303   -3.60030435701554
H         6.08691785289988    2.35764025545471   -4.52296325702045
H         5.59794567949156    1.51359378300316   -1.86861773943321
H         5.53766535847735    0.21796251082902   -2.98449702203512
H         3.48329845301356   -0.54855810175983   -2.31185399569728
