37
 energy: -49.857463194142 gnorm: 0.323394968129 xtb: 6.4.1 (79825abcba525fcdf90b791dcacef51065a7a4e7)
C         2.84606109939321   -1.42981523198457    0.13871396850486
C         2.94862494940072    0.04977564365946    0.46785341447170
C         3.13344212484936    0.92719573354282   -0.83975709461862
C         1.69323702739565    0.72096252505543   -1.79440638739367
C         1.07365775859348    2.02070852557998   -2.28127716381797
O         1.80683386558541    2.64857622497809   -3.25877234247601
C         3.15006994318549    2.97447687708832   -3.00187711703452
C         3.39610827201171    3.42301254560264   -1.57983869093948
C         3.32359133645772    2.37033943616337   -0.38114581356598
C         2.23548483461017    2.84834699425018    0.56644523026040
C         1.19360154203952    3.35653934280099    1.16331644805697
C         4.57755400912110    2.45303873964184    0.47392751717549
C         5.58466995243121    2.86026528183842    1.19498247840967
C         4.05216095012234    1.83087105179886   -3.50412737074494
N         4.80331016842218    2.38013439712703   -4.74240604402527
C         5.03884116342875    1.31832975039878   -2.48265549591624
N         4.33080676276059    0.44096972153203   -1.56275010750744
H         1.97037087678381   -1.63490323441811   -0.47365960387963
H         2.83130913554651   -2.09455662796419    1.01180231122960
H         3.70922062054429   -1.79098275250015   -0.43733244580508
H         3.78926857203242    0.25974762930852    1.13804993573586
H         2.03497519959138    0.36472833354466    0.98459373373227
H         1.00510750730600    0.27952370703196   -1.07796088991729
H         1.94599176980830    0.10475124627736   -2.71002846670117
H         0.87764872374159    2.66943855589903   -1.40700051289475
H         0.09857857164614    1.76685395721261   -2.73919659772040
H         3.31426967706760    3.79387370460896   -3.70688612281928
H         2.60207880314908    4.20157739780021   -1.38589351317988
H         4.44950344299925    3.88381735576559   -1.47196911611578
H         0.26511217990119    3.53105014341366    1.65753877930116
H         6.40054779978735    2.85231899099781    1.88476127452711
H         3.45211996060813    1.01510462112720   -3.91440204858085
H         5.36510701797191    3.20129458425357   -4.51691568545521
H         5.32338101314583    1.62715940392091   -5.19937539394808
H         5.51113857808253    2.11132793188531   -1.87255269709761
H         5.79950176197167    0.68528914160900   -2.96003864183653
H         3.99569025985217   -0.40233708873605   -2.07467157862874
