37
 energy: -49.853905050131 gnorm: 0.322650445942 xtb: 6.4.1 (79825abcba525fcdf90b791dcacef51065a7a4e7)
C         2.55161028425654   -1.21307069239819    0.45490192830256
C         2.92199936473650    0.25226188836604    0.60869930909937
C         2.98675192668065    0.99028458943451   -0.79308464158878
C         1.42800221025550    0.87965032502913   -1.55868082253740
C         1.00437683108825    2.08058578410388   -2.38847408015373
O         1.89905328811656    2.41523168578429   -3.37580788076653
C         3.23378784550161    2.78234169322940   -3.13044395551465
C         3.42794351808205    3.42658675554730   -1.77361725410021
C         3.31311129804120    2.44046281426309   -0.52277068594061
C         2.27504201354422    2.97164191076710    0.45224560482790
C         1.49505720371494    3.79863923673718    1.09078665692424
C         4.59278238071713    2.49925253795277    0.29539659990337
C         5.72678764879063    2.47470890167971    0.93840972733064
C         4.22997431177563    1.69307002413698   -3.54182117597915
N         5.39171334706763    2.41658763243066   -4.26717221358066
C         4.94744719988712    0.92998427468315   -2.45435898636430
N         4.03109949666857    0.25807734549408   -1.54543257475941
H         3.31178319798756   -1.73319063388102   -0.12432879824717
H         1.64780949541592   -1.31638825673269   -0.15898048158488
H         2.38141503667158   -1.65101066388248    1.44815817286075
H         3.88090473607142    0.46895171069808    1.09189628951124
H         2.15819379247248    0.81204919357479    1.16025242572986
H         0.73021283987912    0.69875003914881   -0.74501645777890
H         1.44684365264145   -0.03118135970517   -2.23098710255487
H         0.69673569569377    2.94597794892382   -1.77196520819859
H         0.16083100415053    1.82698483427639   -3.05857016784829
H         3.33965859792968    3.54176781954930   -3.90984998207486
H         2.72247403994775    4.29511710945100   -1.62452465972489
H         4.53433084275586    3.75678978520858   -1.79578376819003
H         0.62892029153073    4.11533016936067    1.62587167376972
H         6.50870393193719    2.46231676106145    1.66639872554477
H         3.67408348724231    1.05624260940191   -4.23412573671915
H         6.04722284344254    1.67625695962399   -4.51813725090847
H         5.06995441307676    2.77171115212077   -5.17084498890156
H         5.50065594718337    1.72343893675946   -1.91721266551384
H         5.64125346831538    0.17714176359936   -2.85323320457332
H         3.61674523498407   -0.57366935198180   -2.01664485857035
