37
 energy: -49.848090713935 gnorm: 0.320247516007 xtb: 6.4.1 (79825abcba525fcdf90b791dcacef51065a7a4e7)
C         2.55450083723159   -1.36451766949004    0.30073507742932
C         3.11408815092905    0.03680856450661    0.47733661138966
C         3.04020500858049    0.90276010763262   -0.84876212257925
C         1.39137979476000    0.82750330679458   -1.39993356545755
C         1.03801348916048    1.94059614387735   -2.37277367528247
O         1.95888811887402    2.05679145204555   -3.38556706134232
C         3.11142736375236    2.82382698959900   -3.14102805582109
C         3.24358942385213    3.41410807624174   -1.73059941162501
C         3.27526457160262    2.42653339259117   -0.47603297456090
C         2.20529442598731    2.86767066251574    0.50933883934567
C         1.27843846890631    3.49661681224108    1.17672199743903
C         4.61412339077323    2.71981468711120    0.18112386719266
C         5.78557971113789    2.62331488990929    0.74540583994039
C         4.30249079865772    1.89729830669881   -3.58940541371545
N         5.37670054457202    2.83844560514222   -4.18904249378137
C         4.97205837199644    1.08713479781078   -2.50545173683101
N         4.04969149795610    0.27193959124261   -1.72956812361029
H         1.55129542291651   -1.27624385880811   -0.11119025308350
H         2.41613906379565   -1.87114342796049    1.26435759620113
H         3.18516480917289   -1.99534423963154   -0.34085404434310
H         4.18318984087499    0.03638831890586    0.71598847522977
H         2.68262422751442    0.61292245882806    1.30371623560658
H         0.75628489633511    0.87619574250869   -0.51904303080837
H         1.37053061028155   -0.13198708240349   -2.00069025213521
H         0.83220889366089    2.92629853318982   -1.91488163066944
H         0.09586530977547    1.62273251161942   -2.85880998054057
H         3.07523810709245    3.67808364020453   -3.82245767389839
H         2.31257875178014    4.03970188637350   -1.60366526688297
H         4.16112494632318    4.11209094768674   -1.66302144891574
H         0.41326308222669    3.65350068357561    1.77976532768727
H         6.72465793999700    2.72140495809134    1.24543084810983
H         3.89754456673400    1.27026862830748   -4.38734131430245
H         5.53217208265775    3.40411226859383   -3.35440755465962
H         6.18051778157508    2.23204428752650   -4.36910165679949
H         5.41867299858474    1.77168682383847   -1.75975723648851
H         5.80796259555593    0.54654937906903   -2.97050136927033
H         3.47505255439214   -0.37630254723765   -2.30845088704309
