37
 energy: -49.852545178106 gnorm: 0.325447634456 xtb: 6.4.1 (79825abcba525fcdf90b791dcacef51065a7a4e7)
C         2.40057978190173   -1.29991103661367    0.48484957046640
C         2.92076212285092    0.12631876658819    0.54247038402032
C         3.06450417629683    0.93878724060163   -0.81145053198464
C         1.57599462120536    0.79741270101944   -1.70163628518927
C         1.04512689961186    2.08612022475660   -2.30799729120749
O         1.85466833353675    2.52965394196929   -3.32543642186785
C         3.16738272130866    2.96671332686898   -3.07593775997707
C         3.46022217877435    3.49557104578523   -1.67685022027351
C         3.38614827858617    2.39568491166273   -0.52142495326541
C         2.29956956328199    2.79665404529474    0.46293587061751
C         1.20612876387077    3.18573923175718    1.05710371195674
C         4.71526293474647    2.47652251669743    0.21160400817291
C         5.73672391231754    2.49344809544209    1.02176895001752
C         4.17574576484532    1.88011117609033   -3.55318682585874
N         5.13393485768489    2.53722703209752   -4.57755094936249
C         4.94629295979934    1.16262247965941   -2.47100929380749
N         4.19584509615456    0.32730884017153   -1.54560214878894
H         3.19647748403883   -2.04011993239924    0.43451583216454
H         1.79822353369984   -1.38165329907424   -0.42886107900703
H         1.76704017035416   -1.49131770488088    1.36195096495964
H         3.92432112476881    0.15526030771168    0.98060852322731
H         2.21591836272686    0.66284085298580    1.18769200825994
H         0.87114402592943    0.33175381769119   -1.01750759841943
H         1.69923727347782    0.02439827500426   -2.51969804194898
H         0.94504832067257    2.83790788370954   -1.50274611906590
H         0.07146623612957    1.92185518086604   -2.80791096215473
H         3.30250534681541    3.81125170845473   -3.75704510093021
H         2.69709456822590    4.31624903719101   -1.54126024371934
H         4.48724896034840    4.02228854805292   -1.63939404795335
H         0.46869081364985    3.67235084383023    1.65392583805574
H         6.63089983333014    2.75545747166018    1.54456441228279
H         3.58623968886334    1.18132261707431   -4.15153998741919
H         5.96165173642333    2.93501723842298   -4.13323869959040
H         5.46422959449925    1.72815411918426   -5.10912636181053
H         5.43091598410538    1.96214921250598   -1.87937265139652
H         5.79853774612095    0.58574305333365   -2.85588405036027
H         3.98792592346844   -0.57489072139049   -2.02345004101664
