37
 energy: -49.857928776138 gnorm: 0.322236178012 xtb: 6.4.1 (79825abcba525fcdf90b791dcacef51065a7a4e7)
C         2.52373181879695   -1.21637069896650    0.56143473215951
C         2.96719089439205    0.23625247364537    0.59708924451036
C         2.96523451608344    1.00329229771025   -0.79053993036475
C         1.33891719372132    0.98962625048736   -1.40939640606349
C         1.03115516653763    2.05540144438895   -2.44846669240900
O         1.94591455618213    2.09419535535122   -3.47266011540955
C         3.19073409087404    2.70428994542209   -3.23878307653877
C         3.46671617797650    3.34284386444954   -1.85860449207751
C         3.35162924928210    2.45192870242112   -0.53827530023515
C         2.26097399134314    3.00444994850043    0.36482336749852
C         1.40195668514080    3.62493181023281    1.12451212944264
C         4.69011712308342    2.58181711816281    0.17023805132222
C         5.71402227933348    2.53505895467537    0.97613393552558
C         4.35032078891973    1.76317968602300   -3.56497523331793
N         5.53806563486008    2.66625379442692   -3.98087038725530
C         4.81496292073047    0.83763117719729   -2.46629017050621
N         3.79120153573558    0.16032369990046   -1.68496663682969
H         3.12056503067112   -1.85163939731025   -0.08980995688183
H         1.46380991318617   -1.33746240979021    0.30397726038629
H         2.62387963648206   -1.66363747387035    1.56005310520104
H         4.01087386833476    0.29808438463837    0.92394697637297
H         2.32407142056725    0.82631593673203    1.25980643284250
H         0.74996068624407    1.07094469626456   -0.49934027588998
H         1.17242753798185   -0.01848650890098   -1.89720266984048
H         1.00318241194569    3.06142490307839   -1.98937608919684
H         0.04798477323617    1.85724202763203   -2.91646305348140
H         3.22345240724296    3.51724385248171   -3.96915686342434
H         2.80036787496686    4.22143887959579   -1.61712674286233
H         4.51644888355529    3.80937412576957   -1.97704884607630
H         0.56876155680834    4.17837156216634    1.49369038285546
H         6.72268195590023    2.57434989666995    1.32624316832419
H         4.08383809904346    1.14095231895885   -4.42268698528921
H         6.23297442450669    2.01960291426530   -4.35464848741294
H         5.22283911865922    3.27934929779743   -4.73652385143712
H         5.53589856053064    1.35137750831020   -1.80262391445034
H         5.46734333283470    0.12126358789210   -2.98441843791643
H         3.14871285478113   -0.40412608417396   -2.28006139860966
