37
 energy: -49.855578441433 gnorm: 0.325215588769 xtb: 6.4.1 (79825abcba525fcdf90b791dcacef51065a7a4e7)
C         2.44317187322732   -1.19717271225427    0.66699770922315
C         2.98605688133496    0.21626896564902    0.54249964247049
C         2.84863683119756    0.96142617946915   -0.85024049928140
C         1.19815894428224    0.96112017383842   -1.40160315884599
C         1.02361105816781    1.96438047967992   -2.52999275616424
O         2.04395142319653    1.89887246479300   -3.44753082927531
C         3.19788943374241    2.67902484855294   -3.25706067937364
C         3.36063729854567    3.31645095263037   -1.90678987550739
C         3.31169736950481    2.40575476882671   -0.59588128526257
C         2.43558321957668    3.06030630964025    0.45976170006256
C         1.51029463378758    3.55734532373658    1.23230861847160
C         4.65598161741132    2.44482343005186    0.11248691028586
C         5.74859781930164    2.59404743910030    0.80815799791923
C         4.45026047769032    1.80555133464501   -3.56344277065294
N         5.56246382098862    2.81112685257955   -3.95212135798929
C         4.85711096547644    0.95723103746584   -2.38256742837426
N         3.75215933468315    0.23442187537117   -1.77107085014527
H         2.81557495708112   -1.85959512983277   -0.11172453309991
H         1.35039869182803   -1.19696196958182    0.56586053619216
H         2.65697503947619   -1.48498690360162    1.70563479966015
H         4.07492122884199    0.19525404677625    0.66025412460504
H         2.59604692734168    0.93611765502237    1.27097868810781
H         0.51184272830565    1.18942888938952   -0.59010466875952
H         0.94587958631352   -0.08028901157760   -1.76737238403362
H         0.87895328125975    2.97533515598630   -2.10493437620345
H         0.11383282286902    1.74808503621388   -3.12196540279510
H         3.14226536750909    3.55000481539959   -3.91562751151812
H         2.63774921843429    4.17176841416206   -1.76492506004063
H         4.45771316808194    3.67437016137046   -1.95079763710332
H         0.93420490795928    4.12674092445938    1.92564226378156
H         6.68775807510045    2.54914170869453    1.31557902571409
H         4.21037812193811    1.13343218066495   -4.39082519011002
H         6.40499039461518    2.25665238633766   -4.10532936663633
H         5.18685093090910    3.18331121292543   -4.82771245514369
H         5.42078941784594    1.61946726623634   -1.69857461519379
H         5.56433323138217    0.17348586875519   -2.68723085526927
H         3.22779266937492   -0.23045514390440   -2.54208446650450
