37
 energy: -49.855612193337 gnorm: 0.324170505942 xtb: 6.4.1 (79825abcba525fcdf90b791dcacef51065a7a4e7)
C         2.62513154635022   -1.30397308252904    0.46891613447045
C         2.88015426991559    0.18772767586249    0.60245839544797
C         2.85652424643451    0.95936159094598   -0.78242115496989
C         1.18855433570092    0.98406278881785   -1.27774363486430
C         1.08100437383152    1.99267077575910   -2.40973489969921
O         2.02978780976498    1.89410630347780   -3.39834853135311
C         3.21845003878365    2.62117545432544   -3.21142045083505
C         3.43825099092177    3.31042552934960   -1.89200911611161
C         3.33510959896284    2.41090887426199   -0.57653366587992
C         2.34308348322837    3.10889858239083    0.33948511589529
C         1.63617860901279    3.86982974080880    1.12771400622063
C         4.66052138161993    2.47333034392560    0.16495073012270
C         5.78797928777346    2.51212844220093    0.81868589006226
C         4.41292708385462    1.73685601104390   -3.57500757530304
N         5.46922415388132    2.82424679798469   -3.89291828560061
C         4.77038291851390    0.86529675955907   -2.39507070516775
N         3.64799935589126    0.18560156913814   -1.76612806632319
H         3.23680703114901   -1.63626920129276   -0.36734234091093
H         1.57348960787873   -1.46355986361057    0.19879895480893
H         2.76489841140019   -1.89152540433090    1.38682860354072
H         3.86386699592991    0.38580856959856    1.04178349649162
H         2.19386273908275    0.76867058808914    1.22894134592108
H         0.52693985406906    1.24708617302387   -0.45630003092953
H         1.02364058944358   -0.07782408555167   -1.63434539373252
H         1.01946574207679    3.03396940970246   -2.04157731368311
H         0.13852896534270    1.79756646061282   -2.95616529901674
H         3.22006107500580    3.37700292126693   -4.00144111928510
H         2.72645397758458    4.16877610269369   -1.71639570736590
H         4.53113673450136    3.68201609629109   -1.92576572836947
H         0.74899554652666    4.34795578260425    1.47571398081603
H         6.70777629118910    2.73907533118726    1.31263240337373
H         4.17141066606507    1.18705988969238   -4.48782925267446
H         6.43299667921349    2.49075610341865   -3.91922666736055
H         5.25869994681622    3.16213919964582   -4.83513603847832
H         5.37221293834129    1.44656124366648   -1.67114486943519
H         5.40704518487949    0.08318280820834   -2.83118829513824
H         3.02859806315513   -0.08049414851234   -2.56052604403917
