37
 energy: -49.856136938649 gnorm: 0.322963656965 xtb: 6.4.1 (79825abcba525fcdf90b791dcacef51065a7a4e7)
C         2.94333561333721   -1.31613963231811    0.27491229005939
C         3.09863296975265    0.16466355859050    0.57681611327633
C         3.07737859162434    1.02226768190350   -0.75657507657266
C         1.46511652643158    0.85734660049293   -1.39020762104406
C         1.03176808445267    2.00936068613085   -2.28202260387061
O         1.82275185946747    2.30799122950561   -3.36480898280564
C         3.13161171753763    2.79373449156557   -3.19919223429377
C         3.41047364930801    3.37309600367423   -1.79754194780258
C         3.29103458251532    2.49277053184522   -0.47051317562513
C         2.19376024875761    2.91727774505579    0.49186849906150
C         1.11779575820190    3.37377772936483    1.06974710502872
C         4.56096588246493    2.62140768610631    0.35479825480207
C         5.57221861257983    2.56525959143594    1.17592648662074
C         4.17267192976432    1.79564334868823   -3.69741585083591
N         5.15725026948070    2.69130338573433   -4.48965825969291
C         4.86853538658119    1.02713513804255   -2.59977729479017
N         4.05633327625384    0.32238552182425   -1.61949418930614
H         3.67592173211995   -1.67155007970309   -0.44681954334714
H         1.93483489821867   -1.48824019521551   -0.12218933679752
H         2.98098095240390   -1.92460977760129    1.18905818598725
H         4.03581741900553    0.36418838075134    1.10767246447920
H         2.27870805400102    0.52149161150574    1.21035261023195
H         0.80124196246239    0.85938042708158   -0.52942248859203
H         1.41578279300017   -0.15427677185191   -1.89631969100057
H         0.87296570176542    2.87166362797438   -1.60760040959794
H         0.06655445061749    1.72087290312528   -2.74033386360957
H         3.30331945486692    3.64612536225836   -3.86203208546351
H         2.68566171377033    4.23232405401026   -1.69441302077088
H         4.47345039952997    3.82417043557841   -1.81272710366915
H         0.42767841355310    3.82992606106668    1.74240527653958
H         6.52506299532443    2.72009124520495    1.63377946232997
H         3.68732005598005    1.07876926182969   -4.36403003610281
H         5.78668467148205    3.16911847178981   -3.84446779788073
H         5.76565304241525    2.03802143390706   -4.98899258457051
H         5.57412654046922    1.70819734078209   -2.08749632848021
H         5.47980378852639    0.22839400328181   -3.04204776296095
H         3.56366961045242   -0.38165183177256   -2.20868597177732
