37
 energy: -49.856583978880 gnorm: 0.320637782106 xtb: 6.4.1 (79825abcba525fcdf90b791dcacef51065a7a4e7)
C         2.60816037392325   -1.31545356543820    0.41430213026192
C         2.81915511261793    0.18270882476340    0.55225846531874
C         3.00525134268271    0.95738248638516   -0.81855062320333
C         1.51568913327322    0.78700777766091   -1.70187107141706
C         1.06125011237046    2.06695011125671   -2.38414234310847
O         1.86073814339148    2.45232187070428   -3.43274587706893
C         3.17979722141903    2.84329374846975   -3.14341269273918
C         3.45584097200012    3.38624330104684   -1.73672846983084
C         3.23358464945359    2.41583174599749   -0.48807016085413
C         2.14381144165715    2.99057656915054    0.40213129821267
C         1.56075293453050    3.56810031868440    1.41531668650447
C         4.52868423203155    2.48919036657119    0.30423505571196
C         5.68022956522393    2.56365382109004    0.91122340354242
C         4.21605662193235    1.77289795015549   -3.58446371545666
N         5.24695525994020    2.52483175035292   -4.46258272883637
C         4.96392958825835    1.15269850366598   -2.42874753365755
N         4.14036957817585    0.34256188341605   -1.54402903449161
H         3.56744349709190   -1.77504728277253    0.18529262941689
H         1.83118031131964   -1.56317963972885   -0.32007908723846
H         2.29623284835664   -1.71101341177791    1.39080068891148
H         3.67435501838490    0.50633792226810    1.15544221891105
H         1.93878938421453    0.62787824104861    1.02949215527850
H         0.76794588125842    0.49616287838169   -0.96840403671438
H         1.68107895161765   -0.04062252827443   -2.45661564857284
H         0.91082368996998    2.88475756961201   -1.65462694994119
H         0.07001421824884    1.82950453697318   -2.81539954261993
H         3.37280257209049    3.71863691304893   -3.76945876982409
H         2.79128228438928    4.27700349030467   -1.53881737140047
H         4.54070694479027    3.78190112126927   -1.72493783389465
H         0.67715227830987    3.81829596599945    1.95703092683345
H         6.55857469262738    2.55093733720423    1.51938679989165
H         3.60796194481146    1.05467943434832   -4.13965052815525
H         6.07906382357762    2.07245588333510   -4.08348238834607
H         5.16297936047411    2.12097222774980   -5.39859103275755
H         5.41460338741223    1.97851763086786   -1.84646557036151
H         5.75658321678939    0.51399811682295   -2.84227101255417
H         3.76455891423385   -0.50567409017410   -2.01815466905708
