37
 energy: -49.854058372745 gnorm: 0.333442861995 xtb: 6.4.1 (79825abcba525fcdf90b791dcacef51065a7a4e7)
C         2.58081349965471   -1.33591887384108    0.47772061645175
C         3.02355689174793    0.11297212035687    0.59056765126238
C         2.99205031978789    0.95032736233183   -0.75543092998636
C         1.36169017831945    0.87386109347551   -1.35888502947718
C         1.08380854075009    1.99205576559848   -2.35018909987892
O         1.89799492006394    2.09007009346476   -3.45234861984338
C         3.12935245670049    2.71100434421847   -3.17905605627556
C         3.35243411880202    3.30421126674963   -1.82623169331052
C         3.30142304538235    2.38218470128484   -0.52334685419139
C         2.29287226633581    2.95388944275263    0.45969683133248
C         1.34149093322647    3.66194208278413    1.00151834262071
C         4.61418674053213    2.49094415224141    0.23509551314945
C         5.80493019323593    2.54691115590950    0.76333222385004
C         4.34766219316597    1.87139599597902   -3.64317486955562
N         5.46980453870306    2.88758837553323   -3.97089280845935
C         4.83141034469772    1.03513088666900   -2.48287766068385
N         3.82598490640508    0.26342201772212   -1.76811590590711
H         3.31172498360260   -1.93501278218069   -0.06149245693895
H         1.58816463274291   -1.39013437525833    0.01286482739756
H         2.48136812736315   -1.68498412806846    1.51482228673987
H         4.07216828302775    0.09489123274584    0.90682789816052
H         2.41184682283172    0.75624432849074    1.23320540117736
H         0.63670364415586    1.01153151474186   -0.56068330198624
H         1.31227302456618   -0.16058275441015   -1.81654097291655
H         0.98494979229908    2.97015353998333   -1.84305839879835
H         0.11122296078077    1.75473732702158   -2.82206728228727
H         3.14156836535817    3.57363436973961   -3.85071863707311
H         2.72794064856552    4.23934294972033   -1.72724987035066
H         4.41757318579843    3.72366913395502   -1.97839006566357
H         0.56097242092938    3.87091697532737    1.69716382410757
H         6.64439641959073    2.61855229634908    1.42035474094735
H         4.11091333506746    1.26259514244917   -4.51905206912301
H         6.37294214488016    2.41313408487012   -3.96977688811707
H         5.38858943043808    3.17586838258402   -4.94893409308000
H         5.36720698373143    1.66150559205281   -1.74483086071711
H         5.56611877541739    0.28464915669526   -2.80570938370940
H         3.17030023391199   -0.21704651880116   -2.41985253603959
