37
 energy: -49.853822749503 gnorm: 0.326288412514 xtb: 6.4.1 (79825abcba525fcdf90b791dcacef51065a7a4e7)
C         2.65020096608218   -1.31964837584258    0.33909797286197
C         2.89566515941665    0.16105995156994    0.57423932709631
C         3.09322389301169    0.94421434440475   -0.79013173305162
C         1.61443173003519    0.86297196590063   -1.70372439168620
C         1.12064496442406    2.14493496091660   -2.35411411999346
O         1.89698732420599    2.75717445609615   -3.30790509136744
C         3.27892610092792    2.91398727416428   -3.10261381159083
C         3.57500917859611    3.40955908855336   -1.70617285938878
C         3.38666391618985    2.44362989157522   -0.44849609870443
C         2.24106665406355    2.97303710752367    0.39869378097565
C         1.25847864873842    3.46408195434477    1.10114041430712
C         4.53406114350342    2.50367918287824    0.54663484025574
C         5.56733596699483    2.58896341979335    1.33727128469521
C         4.10790127550714    1.70205287661001   -3.60296681732280
N         5.01307000907392    2.37146428664492   -4.66683117487220
C         4.91815020501422    1.03274258111457   -2.51891810042027
N         4.19412979705051    0.26864384262565   -1.51430532769786
H         3.58398712340183   -1.76389975852210    0.00060134323002
H         1.84637462813389   -1.50249493559604   -0.38534136358472
H         2.31758704662509   -1.67184134063563    1.32532507876683
H         3.80484256562456    0.27455072051848    1.17461387816593
H         2.11650059927093    0.69806820435376    1.12695656440808
H         0.88278080845247    0.49565123329408   -0.98856914582001
H         1.78409948527634    0.03993140896029   -2.46252751931818
H         0.92143752036381    2.80213826672462   -1.48691744944188
H         0.20332222184439    1.90708048498480   -2.92582733908222
H         3.59242111805958    3.72881145690895   -3.76078767710196
H         2.94768551676867    4.34628272687443   -1.64894877805908
H         4.64403655788378    3.84201348284601   -1.76767042166309
H         0.35723737887713    3.81331017410785    1.55125824022072
H         6.36074072288753    2.74384001604705    2.03586751192280
H         3.38439988157686    1.00348815337617   -4.03005279252513
H         5.79900259535708    1.73146390773829   -4.78291364432369
H         4.57917740631814    2.34101109072234   -5.59261507126869
H         5.49117935091107    1.80951395696847   -1.97817766687125
H         5.68843225273592    0.34724966788930   -2.89839755894478
H         3.83521356193841   -0.66560810194341   -1.80393522878980
