37
 energy: -49.852766757082 gnorm: 0.316377839741 xtb: 6.4.1 (79825abcba525fcdf90b791dcacef51065a7a4e7)
C         2.49017679461131   -1.33715011142039    0.40892181310044
C         2.76684705009159    0.14647165012826    0.58316680141723
C         3.00030310192444    0.95847694505979   -0.75847932141408
C         1.55738819458553    0.92913426868434   -1.73070033992230
C         1.08204894751334    2.19231774293398   -2.42975784813555
O         1.87496166771230    2.67863631258150   -3.44072052950158
C         3.23390480363545    2.82958646332738   -3.11364690262002
C         3.51795547051337    3.40478336805917   -1.69254022734676
C         3.35114568269458    2.42453334800122   -0.44292892794517
C         2.27218613056920    3.04858563979789    0.42701407146708
C         1.45554157135412    3.90528056926423    0.97400671968347
C         4.70539612902679    2.43946859067183    0.24713963100245
C         5.75640639952441    2.72041990839903    0.96580507424234
C         4.13954117537286    1.64079968395787   -3.45254870522908
N         5.20558999968317    2.23608713374160   -4.40566055580455
C         4.87637991335206    0.93002173941186   -2.34281693230666
N         4.07760876050777    0.16709032859918   -1.39561074343234
H         3.29468705743286   -1.85014446316461   -0.11404652148689
H         1.54042695858616   -1.64959238720920   -0.04355699464171
H         2.48387257073880   -1.63424440353346    1.46675499779810
H         3.67686461445075    0.34031439058909    1.16128991694585
H         2.00243141779849    0.63250374355710    1.19994323177132
H         0.76142202514634    0.62528969839641   -1.05557001799994
H         1.77970762363639    0.10544534329270   -2.47506296506845
H         0.94127365685571    2.94379804015005   -1.63032709015671
H         0.07768138816265    2.00510047386378   -2.85532484703737
H         3.57859808526629    3.59397389742229   -3.81529411026322
H         2.85490157010112    4.30644079586017   -1.54545464373619
H         4.62149399509232    3.72861739692412   -1.79719465807776
H         0.69551678997142    4.39441559937159    1.53961392233650
H         6.74649296530721    2.63107552776801    1.35729040961043
H         3.54972971213494    0.91725899493004   -4.02040491849675
H         5.92065796357784    1.52055068487327   -4.53776298670867
H         4.73196488482224    2.35765563552538   -5.30408493250273
H         5.49214689917041    1.66985568389720   -1.79727761873925
H         5.66011428579776    0.33622046020295   -2.83312306202657
H         3.66216291047125   -0.73366339428150   -1.71432772726819
