37
 energy: -49.757275761699 gnorm: 0.319454565753 xtb: 6.4.1 (79825abcba525fcdf90b791dcacef51065a7a4e7)
C         2.83634575897263   -1.33374534291490    0.28839826229346
C         2.75863505562450    0.16674879238810    0.51316407225338
C         2.74367088172272    0.86622802286317   -0.90964073370962
C         1.08213779984577    0.99294176876024   -1.41096853445472
C         0.82600251867757    2.02200763066536   -2.49985762430288
O         1.89659369803852    2.29619532254839   -3.31589531210516
C         3.04513019255711    3.03498200362048   -2.98190772146847
C         3.37010946080788    3.47127894723871   -1.59845113765751
C         3.40508066237946    2.27371791938779   -0.54257776044513
C         2.53155976087079    2.72545416289784    0.61642673693195
C         2.33999554307805    3.50490137592265    1.64394835830475
C         4.79987246233386    2.00157180595118   -0.00322236453085
C         5.99866879834916    2.45787036731365    0.23069051875006
C         4.12436983363794    2.04779231567284   -3.55695263086911
N         5.48078695849455    2.68683536268612   -3.94554754889334
C         4.68361664840708    1.04377871828536   -2.57774840678722
N         3.68274250447674    0.25359147684443   -1.87692437703095
H         1.86843134929545   -1.82855918473011    0.24152819706150
H         3.33026311848956   -1.87468245426121    1.10559755274817
H         3.43822037397500   -1.76966537708427   -0.52094497647091
H         3.44996138672165    0.50450495661883    1.29285759255726
H         1.83186027409209    0.28058015201655    1.08683866851702
H         0.73888955396305    1.23716264066938   -0.40886004673714
H         0.69681169171742   -0.01350989131702   -1.75816290946850
H         0.36511700911746    2.96083551216377   -2.13955690442603
H         0.22297270085509    1.65298308408626   -3.35137843486780
H         3.09901951284268    3.76391130504715   -3.79503036055469
H         2.55118178603545    4.23885418879321   -1.47825771780380
H         4.34868400151181    4.07425495856840   -1.48696080559757
H         1.47688143840356    4.04842051595447    1.95446932355596
H         6.84297363170373    2.24637314237421    0.85031367535349
H         3.69498158234036    1.68968721771239   -4.49569425514866
H         5.32370918305099    3.67583171961694   -3.75066698733295
H         6.21014785136158    2.33252314403345   -3.32204009081777
H         5.55232100211551    1.44070962985820   -2.01923700777202
H         5.15104835470425    0.42683953295918   -3.35757740441628
H         3.19035523225171   -0.32357609518957   -2.59104299761256
