37
 energy: -49.857582111727 gnorm: 0.315232546455 xtb: 6.4.1 (79825abcba525fcdf90b791dcacef51065a7a4e7)
C         3.14195669105809   -1.35254093075727    0.51235346729661
C         2.75518427334533    0.11611807944150    0.47376478866154
C         2.98753351677608    0.90142041918612   -0.88387386361105
C         1.55215779482133    0.69881297673838   -1.84653937779433
C         0.98977629575349    2.01553588830764   -2.35666594319459
O         1.73575045643493    2.67646128505850   -3.30216160558460
C         3.09788955140152    2.95520276687893   -3.09390737555624
C         3.43409678922702    3.42841656547598   -1.67363831306454
C         3.23059106100216    2.38171897441678   -0.48483488242170
C         2.11806753828203    2.94192563478603    0.38628838058096
C         1.52925893261131    3.57414924221137    1.36282988022343
C         4.49615997987969    2.45360299957604    0.35396189504765
C         5.51725211750506    2.37126130483031    1.16057637953600
C         4.10428067753636    1.83315164600310   -3.61691961470321
N         5.02828155863651    2.44943733205371   -4.69657871286707
C         4.92289457056878    1.25197255434361   -2.48920361431165
N         4.18594456084662    0.38406940586152   -1.58314177074505
H         4.17342997159028   -1.50550660017937    0.20161205971954
H         2.54678080752404   -1.87200602132666   -0.24942319649717
H         2.98918694874504   -1.83101626624462    1.48961421418928
H         3.34136309164071    0.61443951178128    1.25351055182819
H         1.68981546914097    0.21481481398859    0.71087211739935
H         0.79103144397422    0.18567178468070   -1.26425301151787
H         1.72325528233691    0.00688277340565   -2.72626850398048
H         0.77179174575105    2.72519503635195   -1.53660711246311
H         0.00148300944255    1.88193191551458   -2.83660149022018
H         3.27438650637490    3.79251349963882   -3.77447329703704
H         2.83959748345778    4.37595209659573   -1.52195523298574
H         4.54310571125652    3.74634601628615   -1.62227310005251
H         0.90284159380579    3.92940236611134    2.14908607075485
H         6.38158085600187    2.53751405653335    1.76622519012102
H         3.49898930356328    1.04334440679472   -4.06822466370676
H         5.64845526398123    3.12169408766479   -4.24467044272201
H         5.59916842219438    1.73144661332675   -5.14917514185066
H         5.46052239446938    1.98384998680673   -1.85718451993791
H         5.70332791175610    0.59545411456778   -2.89803972419216
H         3.97562351427524   -0.54750450192909   -1.99963684996887
