37
 energy: -49.858170043295 gnorm: 0.323023020777 xtb: 6.4.1 (79825abcba525fcdf90b791dcacef51065a7a4e7)
C         2.63222392819054   -1.39719434331199    0.46429523939771
C         3.13632172178936    0.03595781563056    0.46555276603222
C         3.05248242891745    0.87070291764983   -0.87982459132167
C         1.44145928420815    0.65531602379069   -1.50134775623070
C         1.03166274175627    1.84953710639556   -2.34761254275822
O         1.90411706011713    2.14443934013406   -3.36698392311268
C         3.09088237384787    2.86597763186218   -3.14913044991364
C         3.20327658753996    3.38928580532114   -1.74093183206974
C         3.25944106013311    2.33830247574401   -0.53988078413957
C         2.22830307170811    2.69444286770223    0.51856823182687
C         1.37245187551007    3.42826173112235    1.17359814440483
C         4.58764016973399    2.57731492655668    0.15952769578773
C         5.75013451388691    2.83406010068532    0.69124664396306
C         4.30264066019975    2.06380268982611   -3.58312723480257
N         5.36165649052771    3.12539775025074   -3.97139369251819
C         4.85893455821583    1.11745395539676   -2.54649692849624
N         3.91746112629124    0.22189384904879   -1.89159301999367
H         1.56792385050912   -1.44937178761049    0.24420728915395
H         2.79831866438618   -1.88785175313495    1.43179192827188
H         3.14368660545010   -1.96191312329400   -0.32742089508154
H         4.17736729478233    0.00078199133986    0.80455142166345
H         2.59814252729621    0.60408947341127    1.23273018607522
H         0.70950840760911    0.59849347429877   -0.69965970624163
H         1.41078324200174   -0.29488346305884   -2.11628271840441
H         0.80009774667809    2.70046421737020   -1.67983221866659
H         0.14691708151537    1.55484020673911   -2.94367514408738
H         3.08146164321543    3.75907620715220   -3.77976235241027
H         2.31777314783265    4.05810099058270   -1.53397610643027
H         4.16381887571701    4.03035929245981   -1.73966466637446
H         0.81659701700847    3.70246282879778    2.04114722782694
H         6.71736072678788    2.93770194495358    1.13311365378276
H         3.98676403017861    1.46004883150308   -4.43726574989255
H         5.80630745689004    3.47436111511664   -3.12211414902705
H         6.09576698882196    2.65316005580425   -4.50462848783449
H         5.44833609425715    1.61006969800523   -1.75021058029383
H         5.56654282172161    0.49177854512709   -3.10779938973349
H         3.38913669302805   -0.23920483528437   -2.66217353876559
