37
 energy: -49.854536226796 gnorm: 0.325725248958 xtb: 6.4.1 (79825abcba525fcdf90b791dcacef51065a7a4e7)
C         2.52294747534133   -1.22381007548048    0.58367544737268
C         3.14499339258937    0.16116243675538    0.52934962702162
C         2.91018187486853    0.98418515703434   -0.80532853609818
C         1.25306565074724    1.00462447040382   -1.33601317462822
C         1.02091091367429    2.00877191863296   -2.45317626456996
O         1.98845850576288    1.96249777225917   -3.42732832487600
C         3.19969733818156    2.65041612314361   -3.23717474103229
C         3.37172759733840    3.38046534661237   -1.89698745284966
C         3.29262142913088    2.45487798578939   -0.59803624066322
C         2.21832888346493    3.10002567554152    0.26224032984065
C         1.40383750123108    3.47060234641602    1.21056104824247
C         4.62647963621344    2.54070080137724    0.12575146168509
C         5.65954408865222    2.46380688698302    0.91752251532531
C         4.43092583143945    1.84053158724593   -3.58652632874698
N         5.61129174747387    2.80647930384382   -3.85658327914041
C         4.82961514785445    0.93614352689458   -2.44513669967609
N         3.73334616073968    0.24158750820755   -1.78704437995993
H         2.90721143624198   -1.75062332253953   -0.28736120970209
H         1.42610785008251   -1.23528433424602    0.54913306705800
H         2.74822688217443   -1.74373437812156    1.52508062935896
H         4.24031820266883    0.14896788687029    0.53628976848303
H         2.82887211536333    0.82371478404892    1.34302237755709
H         0.69739344147624    1.33930400079806   -0.46371584850595
H         1.07272858726610   -0.06471312226876   -1.66152930097369
H         0.92371850261031    3.01390308123063   -2.00162910469851
H         0.10444612304468    1.79069122263796   -3.03407631471105
H         3.18348543612471    3.47455027322407   -3.95547167733434
H         2.53043336495178    4.12282357266122   -1.77293487815302
H         4.40441883430159    3.89687900169345   -1.91898854819013
H         0.54109430351734    3.75544599303300    1.76854000936875
H         6.63187298767245    2.40642383729364    1.35661050751636
H         4.18972127022536    1.24064481182415   -4.46732459516072
H         6.42111117355856    2.21848283756651   -4.05461940634943
H         5.40401926165091    3.19334042025371   -4.78051109229990
H         5.31468033593537    1.54607399439795   -1.65974954864038
H         5.60262334180765    0.21426164267128   -2.74276818977557
H         3.19244708764345   -0.16211420357019   -2.58076105486305
