37
 energy: -49.851424203232 gnorm: 0.313576422041 xtb: 6.4.1 (79825abcba525fcdf90b791dcacef51065a7a4e7)
C         2.60893500753080   -1.44369816322817    0.29691072189428
C         2.91056402979605    0.02797454081338    0.52327472662987
C         3.08735154529341    0.92457891310073   -0.77237778078251
C         1.57491413131460    0.79526629032497   -1.62319470918515
C         1.10862891086896    2.03544082889171   -2.36804804795130
O         1.88606313054815    2.53893520195012   -3.38261757563530
C         3.21342039283262    2.89584498262749   -3.08727428589718
C         3.53306786780168    3.35122650245534   -1.66232845486808
C         3.33575688717373    2.41387193214887   -0.38456524503533
C         2.18399413351593    2.89065362439962    0.48521495838615
C         1.35309671156386    3.59257634187979    1.20420698153261
C         4.62532739014492    2.59663775930733    0.39902687386226
C         5.48382300067991    2.87696339905122    1.33947310286370
C         4.15337503853044    1.80483038878146   -3.63416156532820
N         5.03778045150223    2.53768349649497   -4.67339341212391
C         4.96198963447594    1.13122653819643   -2.55155290669880
N         4.16758586363360    0.35604709176677   -1.61063913215778
H         3.52568646292887   -1.98171700907897    0.06453529846026
H         1.88472223035205   -1.62883919274170   -0.50659450568080
H         2.09603410737983   -1.97187292922953    1.11255763782104
H         3.83022249137836    0.16210292012873    1.10307745520900
H         2.10446586876491    0.53872195247605    1.06208309333391
H         0.87663160580393    0.52895213268657   -0.83378803239728
H         1.63077212627197   -0.04273143154485   -2.38253968650932
H         0.89853869313866    2.77913761774452   -1.57658924105009
H         0.14178759700993    1.87940805629122   -2.88358991661704
H         3.40050516482212    3.74123666539712   -3.75489888294948
H         2.87345155882893    4.25124666464941   -1.49165098605112
H         4.59899570285429    3.79540464378307   -1.65128594434714
H         0.59081081267269    3.98335295356668    1.83904247683064
H         6.35935482826037    2.80027236060582    1.94699029344319
H         3.59010903947972    0.99267622109598   -4.09997954695679
H         5.96013196444708    2.61663250046000   -4.24467392780261
H         5.10619678115807    2.04570969453275   -5.56756732961037
H         5.67031919382215    1.74332629906843   -1.96185848841313
H         5.58059082740464    0.40050182497418   -3.09063878498140
H         3.79408065684041   -0.53270602639086   -2.00579074208628
