37
 energy: -49.849593476781 gnorm: 0.325691879782 xtb: 6.4.1 (79825abcba525fcdf90b791dcacef51065a7a4e7)
C         2.44785350007584   -1.29160753168390    0.44434242465169
C         2.86454011763988    0.16086853793421    0.60159002379785
C         2.94132436535316    0.93967222855980   -0.77733623844911
C         1.33417320166323    0.93959652018347   -1.44452681281914
C         1.12153597576991    2.12521290540255   -2.37154379563384
O         1.97698180668036    2.14032681306195   -3.44636744456395
C         3.20173369245310    2.78433220464543   -3.19791337238223
C         3.53189588523394    3.35176399960556   -1.83742409812716
C         3.32012764655952    2.40989262634625   -0.56530910412596
C         2.32792913553638    3.10453510860454    0.35306437336865
C         1.54477084234168    3.59349843642979    1.27372361971946
C         4.60949695903103    2.33383680161381    0.23603621021750
C         5.55433439304917    2.89473040017916    0.93797419578284
C         4.29471447144297    1.75124308337596   -3.62347545393616
N         5.46545529271794    2.53446008300815   -4.26782512937670
C         4.84845233052372    0.94310528879901   -2.47459386370490
N         3.88715785743832    0.21717159302129   -1.65836322124626
H         3.12255612988666   -1.76828769183485   -0.26378767153028
H         1.44422324105469   -1.40561841652100    0.01526222295637
H         2.52818049073577   -1.68268037972263    1.46802470464609
H         3.87362455675159    0.16336138114672    1.02782434037287
H         2.31268872264627    0.72532559660491    1.36173467219972
H         0.65363632539417    0.99436504907050   -0.59862221677466
H         1.32089560539521   -0.06769035674864   -1.96140392106404
H         1.06452913861937    3.06058306083113   -1.78378300314136
H         0.09413197133008    2.08634267038031   -2.78122890293056
H         3.25672137937982    3.70885513539275   -3.77898489689743
H         2.88218386050193    4.25692038497349   -1.65624195084165
H         4.61309916512560    3.73680991075364   -1.96532023613044
H         0.79356455280941    4.10289362274373    1.83319475924140
H         6.43423333907154    2.97843485867883    1.53821251098836
H         3.75721316131004    1.11549687205932   -4.33112541412807
H         6.24332835208560    1.87620100562052   -4.21909992603964
H         5.27775412185862    2.57327246619487   -5.27257777558470
H         5.36254722267255    1.65064344504162   -1.79692684505608
H         5.66055174951134    0.26516723403049   -2.77146783376896
H         3.51307287555259   -0.61987686075474   -2.15328074132301
