37
 energy: -49.843714180551 gnorm: 0.339463613937 xtb: 6.4.1 (79825abcba525fcdf90b791dcacef51065a7a4e7)
C         2.59800992302399   -1.45307360160903    0.25532992955902
C         3.12524724889460   -0.04548713182455    0.47615205136726
C         3.14918416027007    0.90530181156208   -0.79242827911917
C         1.69301246987860    0.81443274896556   -1.74078736303053
C         1.05469177737604    2.05798613228717   -2.33776555769024
O         1.81770617474392    2.62319277034613   -3.33054567510297
C         3.15593374112994    2.98132013563367   -3.09100168593466
C         3.40612450760906    3.43680980882384   -1.63239675401725
C         3.36092185850608    2.33051119541261   -0.48161262438397
C         2.19815650095900    2.76690212964703    0.39470669506483
C         1.23044852139080    3.32318472526124    1.06859571070420
C         4.54302728321019    2.66744854439126    0.41254170573234
C         5.40686035864997    2.94399699374007    1.34921114956833
C         4.12207331240790    1.88756553356267   -3.52331307918609
N         4.99192136273962    2.47989564688640   -4.65986877490947
C         4.94768281093161    1.18707020897370   -2.47102201868725
N         4.29825156866237    0.30792330463147   -1.51048100535250
H         1.55771780619366   -1.33846105638552   -0.04224715781106
H         2.70685814343419   -2.12778256600985    1.11399277161912
H         3.18015101175089   -1.96635132404426   -0.52247052084480
H         4.15360448794840   -0.06421508893535    0.85306578751037
H         2.57954044318973    0.47720378663659    1.26985848673283
H         0.95148435082277    0.33412188871284   -1.10744532017287
H         1.89604637508328    0.06027329477052   -2.56053478921008
H         0.89087011870634    2.72205235334382   -1.46839315514388
H         0.13390235555794    1.76792229341928   -2.87898785995933
H         3.22176158448044    3.86479638436445   -3.73174096578870
H         2.70320300761448    4.27880557943815   -1.36555363229628
H         4.39681775265667    4.02912933579740   -1.66849077177005
H         0.54511595708960    3.73164166016964    1.77590362842992
H         6.31625306066160    3.27273599038398    1.80357904377834
H         3.50009319006909    1.16736236673589   -4.06024649743345
H         5.87879344980691    2.68902109799113   -4.20107677218171
H         5.21810400718130    1.67846562727499   -5.25385307243352
H         5.44729132673209    1.94536468543103   -1.83894828353264
H         5.65614882462337    0.50984463497075   -2.96769198538628
H         3.98509691961713   -0.62875060330953   -1.84230806150811
