37
 energy: -49.857470594793 gnorm: 0.324888688664 xtb: 6.4.1 (79825abcba525fcdf90b791dcacef51065a7a4e7)
C         2.74081086389151   -1.25350738350365    0.57003533871283
C         2.87263188454204    0.25918149049562    0.61939996641342
C         2.94262985109499    0.96516443982542   -0.79854114866838
C         1.35709493433244    0.90526018389562   -1.51308200755745
C         1.07030548557698    2.11410254318164   -2.38870364479455
O         1.96228125174680    2.29165808160192   -3.41832257403061
C         3.24851069099604    2.82764309837366   -3.23171216847498
C         3.48558171936746    3.39640069673382   -1.87621815653751
C         3.31894564158346    2.43633345936014   -0.61101171595594
C         2.28278189804681    3.03289865939230    0.32753528053231
C         1.56775930769552    3.40049508374513    1.35401036611223
C         4.59631646359951    2.47006353587751    0.21215173892439
C         5.42950740615954    2.75310324171893    1.17429395943614
C         4.27534142080592    1.74673206121438   -3.66107800214109
N         5.44946892239572    2.53249007006129   -4.29610430467083
C         4.82598406333703    0.91907511620962   -2.52467231683186
N         3.85167095870323    0.22075794485661   -1.69982908403955
H         3.65427953038698   -1.68879388194088    0.17003970564768
H         1.92365841263162   -1.53518188726398   -0.10620673591161
H         2.56793480955303   -1.68301851672884    1.56650403592974
H         3.72721501613253    0.60327201261387    1.21204041045420
H         1.99604190361711    0.68730989087966    1.11866712721643
H         0.58371019553594    0.79158155207263   -0.75767626772766
H         1.33129084968090   -0.00924385739495   -2.18015141900621
H         1.08803952578220    3.02645299119737   -1.76345807691677
H         0.05148593604523    2.02239684709790   -2.81120638020281
H         3.43392267529084    3.62994163543962   -3.95098253856577
H         2.82459702644475    4.29521468501997   -1.70448169206516
H         4.56882747653924    3.78719658782031   -1.78975712470694
H         0.77998913254938    3.73001927953954    1.99247273838239
H         6.33781939987102    2.73623275980868    1.73660999689253
H         3.81098531298997    1.08318738506621   -4.39451595974691
H         6.21556620107540    1.85884046155419   -4.28856643676157
H         5.06671755028516    2.70899690186157   -5.22809826182450
H         5.41409851985051    1.51618822590295   -1.80237479564543
H         5.54012588338455    0.19258614264945   -2.93632126762971
H         3.31732457572427   -0.41023773481741   -2.33374661382346
