37
 energy: -49.854124831003 gnorm: 0.321028509057 xtb: 6.4.1 (79825abcba525fcdf90b791dcacef51065a7a4e7)
C         2.52365206459673   -1.35804315226698    0.42057682289095
C         2.75789370619727    0.13184586138133    0.60334131046357
C         3.01564985235651    0.94370150495907   -0.73393982271514
C         1.60040356110779    0.82841622460801   -1.73985501325914
C         1.16629263460101    2.14843271859789   -2.35578150913680
O         1.94074903304777    2.62120263920080   -3.38726964054943
C         3.29370738096095    2.86769941783842   -3.09532341429987
C         3.53318668133444    3.41243605827149   -1.73608346401564
C         3.32650928136926    2.50161094049286   -0.44073560098501
C         2.22957632414681    3.07302538363320    0.44279111082509
C         1.33949187461279    3.66008257942352    1.19322370400853
C         4.53281380570578    2.59732938950782    0.47909014289575
C         5.72870393011552    2.86128952514079    0.92653640294357
C         4.13020154959827    1.63206451715137   -3.52457230048945
N         5.19144898447360    2.18641180562920   -4.50727388750285
C         4.92865035852348    0.95547304970561   -2.43629627586214
N         4.15329355372783    0.27759054650106   -1.40838752817728
H         3.43074722748292   -1.80831485160220    0.02267028972497
H         1.73527649336517   -1.55129897901183   -0.31800163760244
H         2.19625528526996   -1.81069890032384    1.36674273377937
H         3.66637437884589    0.25830328955874    1.20217743033736
H         1.88485093661928    0.56289359715984    1.10629835808057
H         0.76451606912653    0.42857563947814   -1.17143243752618
H         1.70823617484263    0.11025207201065   -2.60851920004738
H         1.07330859759092    2.90576450017808   -1.55488676084182
H         0.14086713196099    1.98370182199752   -2.73824463274360
H         3.59899314271254    3.65092745756883   -3.79444060994697
H         2.83723679381246    4.29334793408849   -1.61814795167458
H         4.60398766680624    3.84486218313346   -1.73943038304833
H         0.57951635767831    4.23309569680369    1.67373950653706
H         6.64243638369795    2.98799276743538    1.46556693415314
H         3.52310357205318    0.91350026944187   -4.08040216417649
H         5.98012798949774    1.57313486895373   -4.71377444651812
H         4.71444316304652    2.40493756484737   -5.38532738791218
H         5.66726360501557    1.68350151790201   -2.05085962674429
H         5.40244801391183    0.11427533922265   -2.96083590278677
H         3.73924177769421   -0.58910835222092   -1.81202992573107
