37
 energy: -49.855966734611 gnorm: 0.324654542541 xtb: 6.4.1 (79825abcba525fcdf90b791dcacef51065a7a4e7)
C         2.57186220855233   -1.30637488823766    0.38257429576648
C         2.91639509102850    0.16421654636097    0.54597320170326
C         3.06620255718211    0.97407383172989   -0.80885429494318
C         1.53627547757505    0.83156418035288   -1.62561145628959
C         1.10137327285019    2.10775859006350   -2.32735869657088
O         1.87111041573326    2.58695174097454   -3.35941515365395
C         3.19686184374761    2.97306411199819   -3.09523729701785
C         3.48438069713202    3.45615988418869   -1.67801297121874
C         3.34030541872020    2.42768905105000   -0.46486249149159
C         2.24388210958352    3.01375519934323    0.40965348314844
C         1.13280926350306    3.22243887833387    1.05927168464349
C         4.55111827619414    2.56204575440146    0.44414384122601
C         5.75207912092217    2.42433375005937    0.93277941500042
C         4.18096249891757    1.80415151905416   -3.59583999339233
N         5.12230121308956    2.47272547800039   -4.62838041863832
C         4.93130584896069    1.04941037880426   -2.52486292186345
N         4.14332609794792    0.29328280575082   -1.56327139686033
H         3.31188583950250   -1.75363463093930   -0.27789492754331
H         1.56395895351194   -1.41736878974157   -0.03717965639115
H         2.58736698014741   -1.84073233222245    1.34254175993283
H         3.86077668743417    0.23520448797121    1.09646155255204
H         2.13530340068334    0.59751566980103    1.18088993669167
H         0.84083199763455    0.47956917469083   -0.86788954218196
H         1.76081623858455    0.05267895762221   -2.41610772328319
H         0.79264173180969    2.93834053337314   -1.66520438905668
H         0.16756688037499    1.76719609756143   -2.81411795993262
H         3.35092369545135    3.86424720673692   -3.70962158169752
H         2.90793686130388    4.40029265621177   -1.45309837741060
H         4.55610888718848    3.88606366630026   -1.66388037436235
H         0.38363249491571    3.61156140225074    1.71051669281009
H         6.48917242624054    2.55738779527542    1.69468800348488
H         3.55551972901469    1.10732104354442   -4.15895454621806
H         5.59360470802699    3.25923479161977   -4.18112012518237
H         5.85535703506529    1.80766931098478   -4.88644139443543
H         5.56485119135372    1.74086262986474   -1.93779352887333
H         5.61929983686720    0.30573930648317   -2.95013605181700
H         3.85028399761404   -0.67532113599973   -1.81119430918037
