37
 energy: -49.850185992048 gnorm: 0.327340994176 xtb: 6.4.1 (79825abcba525fcdf90b791dcacef51065a7a4e7)
C         2.51414725395435   -1.37985338695664    0.39715809833910
C         2.79422421960549    0.11044495667711    0.48994289108150
C         3.08427106867566    0.91444810122447   -0.84546731362595
C         1.65294639599553    0.79563896475156   -1.82794998607167
C         1.07349942838601    2.08106464561032   -2.39556193083884
O         1.84188674138707    2.64032852553554   -3.38756330479995
C         3.19390705104130    2.86755367392807   -3.07627667436205
C         3.47716051494398    3.36015439151572   -1.69125030786080
C         3.24234732723013    2.37576922573662   -0.45589908559152
C         2.14486744352488    2.87878736426723    0.46763030323563
C         1.54998507194029    3.65004875618494    1.33440961140655
C         4.46865513503969    2.50564442123150    0.43275921287951
C         5.62255990187278    2.82301945333928    0.95026591828053
C         4.12242175485050    1.75318334716050   -3.50296054017712
N         5.17776470178350    2.43442066128419   -4.40928080894883
C         4.96827804325633    1.05645655684755   -2.46433638338869
N         4.22992608242151    0.24803230318674   -1.50590753134107
H         3.45980624649385   -1.90770226902825    0.29227495196986
H         1.84475967405424   -1.66980174978418   -0.42273958608866
H         2.09171667138831   -1.58748225793800    1.39001179507538
H         3.63408429847651    0.29448909861690    1.16868887734793
H         1.91079978245583    0.49838813651540    1.00958986047804
H         0.89946029127617    0.32332058051904   -1.20276309303092
H         1.96194732387861    0.19289039250589   -2.73524138206375
H         0.93032611302271    2.72002649821724   -1.50401327316006
H         0.10808536869783    1.92171023627504   -2.91275980033865
H         3.41815422402104    3.73027375564128   -3.70939410250187
H         2.93369946121326    4.32497189626925   -1.47207451100231
H         4.60432641900410    3.59944332317927   -1.61472487391579
H         0.89238988696762    4.15936550726048    2.00146830609399
H         6.52813466299611    3.17801601851371    1.39233647515820
H         3.60909896876111    1.05388786395117   -4.16729096566295
H         6.04141611335385    1.89205374367551   -4.43592702579559
H         4.84344002632651    2.44839601369964   -5.37587157633794
H         5.58400679826071    1.77453288441316   -1.89041924920252
H         5.62246417437955    0.32018891602932   -2.95135803947672
H         3.73904153392165   -0.52851374444141   -1.99737638623079
