37
 energy: -49.855271796775 gnorm: 0.325611685149 xtb: 6.4.1 (79825abcba525fcdf90b791dcacef51065a7a4e7)
C         2.55862341179804   -1.32920889191962    0.43882701571878
C         2.86080442447439    0.15218765358267    0.58779744165120
C         2.85824932921633    0.92530319516533   -0.79645487507966
C         1.19480507652631    0.97391086598830   -1.30504964825148
C         1.06838637891032    1.91852028877022   -2.48910734958488
O         2.08195031812093    1.91245157553334   -3.41642239192608
C         3.22809919851654    2.69645628788576   -3.19694823180385
C         3.43646730534721    3.31723971200522   -1.83870515162543
C         3.27076136087552    2.38511848346768   -0.55265088496214
C         2.29918462755994    3.06473394124511    0.39843129237072
C         1.74310121132562    3.95847467066637    1.16786893555654
C         4.54170065704724    2.43147159217105    0.27980131584054
C         5.69598421523856    2.86622653978324    0.70247600349278
C         4.40793501180933    1.81757339630780   -3.61192385725501
N         5.65116865014690    2.72073124128026   -3.80666848706792
C         4.75396068455037    0.80429940076217   -2.54741304779137
N         3.67490842898611    0.18981156158067   -1.78889463586396
H         2.94001772377375   -1.66961298101049   -0.52167248023216
H         1.47212054122062   -1.48198222877029    0.41529368041703
H         2.94471001675838   -1.86127933609059    1.31925531155198
H         3.90740745243261    0.18302467795854    0.90967395807513
H         2.30170656066252    0.69942183399194    1.35520603556828
H         0.56754762208436    1.34862759631682   -0.50017694092434
H         1.03355406191813   -0.11504994754142   -1.56986571411168
H         0.87482879521883    2.91112813027849   -2.04089424071738
H         0.15178825550914    1.62872314023473   -3.03753898925501
H         3.24941996280525    3.49003277784280   -3.94874088365014
H         2.68436684767305    4.13447634368461   -1.63688851919278
H         4.45019156807048    3.87008385581241   -1.85727320099361
H         1.08531728046791    4.34555644483665    1.91237565631930
H         6.55517967826704    3.15692436622644    1.26709314517375
H         4.23995840440838    1.23566436797513   -4.52132756948269
H         6.38304851178483    2.08809650550874   -4.13053700067269
H         5.42210168474886    3.36946322741786   -4.56359724606947
H         5.38451323678829    1.27738076878592   -1.77105366787755
H         5.27273006087867   -0.02678131754405   -3.04482917160761
H         3.03581547010154   -0.30309034114386   -2.44778836278637
