37
 energy: -49.855563057008 gnorm: 0.321752596273 xtb: 6.4.1 (79825abcba525fcdf90b791dcacef51065a7a4e7)
C         2.44793644474983   -1.36082123477219    0.53819054648697
C         2.88252098249905    0.09475961325578    0.55968361309590
C         2.99796647556115    0.92148253941594   -0.78830384510182
C         1.48724584116871    0.81568967958527   -1.64539728623726
C         1.01787906994366    2.05009548966802   -2.39785885950722
O         1.85551652781027    2.48599464189024   -3.39566510041188
C         3.19434770165148    2.81913846071909   -3.12541366934502
C         3.47270141943739    3.37148670286602   -1.74734390761424
C         3.29854740731895    2.38611357009400   -0.50277401928188
C         2.19250487627621    2.98429853997378    0.35118181049181
C         1.47238994579926    3.82920358082147    1.03499867541381
C         4.57187275903689    2.46330280408709    0.32372241513467
C         5.74211333525210    2.68454183353018    0.85440744572340
C         4.22719432907652    1.71749151709719   -3.55518204499339
N         5.28369719752225    2.58272408033329   -4.28622496018810
C         4.95008472500453    1.02535217298494   -2.42468931001742
N         4.14736186307407    0.28011454629951   -1.46679780096667
H         3.01784412373399   -1.96661723055223   -0.16331661370673
H         1.39902675947564   -1.46144546582156    0.23152259179515
H         2.55016479868307   -1.74274580928506    1.56337286749741
H         3.88763265160105    0.07513167702063    0.99476818982560
H         2.19917352102361    0.64284380723690    1.21817551354501
H         0.77230569872648    0.64072652645049   -0.84543909663655
H         1.69320336942692   -0.06002014568593   -2.33291375186213
H         0.76531757724156    2.85175686077089   -1.67870547196060
H         0.08752016537850    1.87694216386600   -2.97175955222491
H         3.45601096691919    3.60862285059275   -3.83510173148780
H         2.86106243437008    4.31733157715050   -1.67293968078064
H         4.55608175104690    3.77013407060052   -1.77873883327490
H         0.62321556146875    4.14381633817705    1.59778102977352
H         6.64239035309900    2.88988032544535    1.39185697006677
H         3.79738140614957    1.03895373852689   -4.29592269064097
H         6.13058249708743    2.02640606664465   -4.40480494130325
H         4.92027898405748    2.65284804593680   -5.23978452427758
H         5.55818102200382    1.70302707062787   -1.79610994705444
H         5.69094316392140    0.28386047610680   -2.75417142411507
H         3.77426832419429   -0.59668826243838   -1.88816591223679
