37
 energy: -49.856163781120 gnorm: 0.314794148179 xtb: 6.4.1 (79825abcba525fcdf90b791dcacef51065a7a4e7)
C         2.55093671159987   -1.41201140007530    0.32479795227083
C         2.69289104179096    0.08959715262591    0.50662754294729
C         2.96175957664250    0.92001839186597   -0.81699586356321
C         1.52726375610861    0.75683953620161   -1.78842395304487
C         1.09377573423350    2.06323262035777   -2.43316152258624
O         1.88234459309633    2.55391138633389   -3.44541414890533
C         3.20673950762695    2.87536539666673   -3.10025479201460
C         3.37776643336763    3.40040471311983   -1.72021774759866
C         3.32084871525098    2.39418517270187   -0.48145763517012
C         2.31193907610348    2.91728247499043    0.52793149536905
C         1.61788499561531    3.75986924890576    1.24093361182571
C         4.59110571340642    2.52352975229027    0.34324181980829
C         5.74947272978904    2.80249341507081    0.87277119167925
C         4.19396358141481    1.74538437634965   -3.48748870181444
N         5.24353739283373    2.46545744694896   -4.37017722600345
C         4.93653301208591    1.05828303627772   -2.36671949761296
N         4.09399694219603    0.25087408948515   -1.49751122572450
H         3.51258008510178   -1.83285709411272    0.03839479086029
H         1.84870102959132   -1.76796442055309   -0.43975714206231
H         2.25350837504349   -1.84003007708319    1.29208912094881
H         3.51315997178053    0.17053399967085    1.22811310856845
H         1.80217338868168    0.48883399466607    1.00482793044867
H         0.79580066097126    0.47686109641424   -1.03459477411711
H         1.61835232230620   -0.14966964038457   -2.46066578290617
H         0.97845784570077    2.81161902791223   -1.62678107524177
H         0.06753728865590    1.94318720435285   -2.82981694168246
H         3.39856366241440    3.72272118305645   -3.76403342733150
H         2.66143440199222    4.23398039921428   -1.46276724024603
H         4.41874906404256    3.89822256000881   -1.76659514460148
H         1.07372223906819    4.10716430517930    2.08950613116488
H         6.47120918173065    3.14705236299520    1.58121333022483
H         3.63113045864553    1.07350969274469   -4.13990931399975
H         6.16480640027626    2.02724829770202   -4.37152345405589
H         4.95071608924500    2.52051190570218   -5.34869176418110
H         5.43837737451718    1.82275084152881   -1.74392129637657
H         5.72683630609003    0.37973045288068   -2.71632888190552
H         3.74375155789940   -0.57454164029008   -2.02812415729419
