37
 energy: -49.853531988943 gnorm: 0.327749906564 xtb: 6.4.1 (79825abcba525fcdf90b791dcacef51065a7a4e7)
C         2.74228371825026   -1.37275069141037    0.33601884923061
C         2.88717834049631    0.12351688954781    0.55563249218388
C         3.02701083374252    0.94478659050576   -0.79337884881438
C         1.44064010939651    0.79187969031541   -1.49203866310967
C         0.98690433403825    1.95085752841150   -2.36448092835326
O         1.83001771982551    2.16147301061604   -3.42846533308934
C         3.05851849942834    2.80840509272596   -3.20766164712203
C         3.30151866302109    3.37057645637627   -1.79315711590610
C         3.35782351369954    2.40881732250330   -0.51954290768946
C         2.35403436392265    2.89201662376358    0.51453716928989
C         1.38430203792538    3.19422866735718    1.33204719234850
C         4.67851865388838    2.47327747964952    0.23013785532372
C         5.72321126200296    2.92070446940616    0.86924874542865
C         4.23238388742692    1.90616648248783   -3.69454066385780
N         5.29947746279100    2.91842126739391   -4.18023706617276
C         4.87098459820998    1.08417665477070   -2.60084825950587
N         4.00837308590284    0.32188472765364   -1.71084171285156
H         2.09083664933078   -1.58383661218369   -0.50953144337935
H         2.38969105671114   -1.86825424963811    1.24954861721748
H         3.71924269897226   -1.79239651168383    0.05895505910196
H         3.78945923621500    0.32396881082129    1.14354534682304
H         1.97570966457391    0.50909443916696    1.02629843084371
H         0.79509972512010    0.63945392642002   -0.63080198476286
H         1.48673343466101   -0.15022701311364   -2.11835763678289
H         0.83252411660435    2.88508054518224   -1.79262084077378
H         0.02048856292271    1.58081300371914   -2.75693395453484
H         3.06610154198052    3.64091698425568   -3.91637658256793
H         2.57598303940467    4.19090402092993   -1.51943917683112
H         4.31632317777042    3.92010519606755   -1.75063336060097
H         0.68678547062515    3.29133474135843    2.13257408528540
H         6.71427029858177    3.08186602409046    1.23441111607718
H         3.81502681287746    1.34032064355439   -4.53089042840354
H         5.57184829841829    3.64302591211769   -3.51576141452187
H         6.13024821558412    2.34757839019841   -4.35408865964776
H         5.46711943048346    1.77541266608580   -1.97558637255869
H         5.56191687547384    0.34728171725578   -3.03309594991102
H         3.64034044066122   -0.53416012870025   -2.17696639070287
