37
 energy: -49.850625684787 gnorm: 0.325097311228 xtb: 6.4.1 (79825abcba525fcdf90b791dcacef51065a7a4e7)
C         2.52256437440944   -1.37089738093936    0.32712683670678
C         2.93165757980920    0.07806273019478    0.53010127532312
C         3.09474375167188    0.88125343310619   -0.82715928940131
C         1.60400546972610    0.64698355321623   -1.69370134170386
C         0.96521012278780    1.86023749471363   -2.34961038009535
O         1.73390489355863    2.39397023240492   -3.35534373932931
C         3.06055121668871    2.79420642542529   -3.11804629927338
C         3.29760744605939    3.30979387413046   -1.71677623675988
C         3.30331298080092    2.32716356442519   -0.45794776107653
C         2.32707688399433    2.94953105650262    0.52694699581639
C         1.61693724970779    3.52963810951624    1.45388442046134
C         4.58649137742305    2.64922828986511    0.29047696757604
C         5.58547523406987    3.05673608411472    1.02260050680906
C         4.15561495841055    1.87085099802815   -3.64878555347077
N         5.20917605084991    2.70996919177793   -4.41372942371232
C         4.93882283638235    1.05324551336889   -2.64991223277738
N         4.25169818133635    0.34542714337597   -1.58026176690666
H         3.32160353990573   -1.80389794513047   -0.27115634890195
H         1.60540115703334   -1.50119968229334   -0.26127348705229
H         2.38971647810753   -1.90797617838710    1.27644954786469
H         3.87403052274306    0.20804664283338    1.07321335472970
H         2.21208316397973    0.62659822122946    1.14839982347845
H         0.88672078565321    0.37869913183798   -0.92220230197276
H         1.80306019863093   -0.18622770693868   -2.43403998212948
H         0.75876175870552    2.58656264264497   -1.54124121410096
H        -0.01984317121795    1.59899120435881   -2.78127246336913
H         3.19315989780888    3.62384100298871   -3.81771180305169
H         2.52675234165095    4.12759504011685   -1.61073648426209
H         4.30642231500308    3.87177963953522   -1.70767279893252
H         0.88847402163158    4.00843714765462    2.06780224878358
H         6.48079604362572    3.32717820995196    1.53910447020687
H         3.66035460854612    1.27980723748604   -4.42288750319929
H         5.85702821432236    3.14325946479511   -3.75546445544066
H         5.74693473091939    1.99083165257111   -4.90354858665677
H         5.62252722447557    1.80482303921838   -2.21194428771889
H         5.55197049810275    0.32845325862949   -3.20305394938215
H         3.99426436089396   -0.61827767946220   -1.88115025386716
