37
 energy: -49.854884019762 gnorm: 0.319113104242 xtb: 6.4.1 (79825abcba525fcdf90b791dcacef51065a7a4e7)
C         2.62542281327017   -1.29358804166654    0.46554994328600
C         2.96644243083182    0.18434212614944    0.55197515411869
C         3.03073052897581    0.95116528276843   -0.83428525899407
C         1.46433148497318    0.86655193312772   -1.58748692345113
C         1.11546157676162    2.09821090436075   -2.40697899477642
O         1.94145267110215    2.50746265749455   -3.42556310558425
C         3.25811084882341    2.91549513844157   -3.14913899372493
C         3.51018411896787    3.41761863052838   -1.72949584486341
C         3.33344678685840    2.45802281463759   -0.46530290686491
C         2.19920246744413    3.02872074018995    0.37027444137937
C         1.24711083582623    3.40358944578586    1.17837744536992
C         4.59249528169375    2.44006559534962    0.38609968767184
C         5.51832853818860    2.56732954487534    1.29531524233627
C         4.20977429546700    1.76301902802345   -3.56081211793885
N         5.26946991631985    2.30773835156295   -4.55054718001454
C         5.00680757030934    1.14155010943968   -2.43913678072645
N         4.13061721225064    0.33045072893610   -1.60744723055617
H         3.34489902363340   -1.80473122789109   -0.17083238895510
H         1.62529824580745   -1.37784179059118    0.02166465006151
H         2.62944816656196   -1.82359394223595    1.42804324205882
H         3.94531456718405    0.38537896079661    1.00066975401002
H         2.23999424246019    0.72746363610382    1.16700659625816
H         0.76702456382813    0.79660278224033   -0.75649065908746
H         1.50560947888863   -0.07553325623260   -2.21417401864080
H         0.99966718629886    2.92964169114353   -1.68660106458665
H         0.14441501935941    1.85280263160987   -2.87788783277041
H         3.38705435122292    3.81556130240602   -3.75631679756220
H         2.85627340379212    4.30330551530883   -1.48005590604260
H         4.56872981014124    3.86492166791286   -1.61539361379492
H         0.30421484018515    3.70392837865060    1.57529799327087
H         6.43904224623694    2.34662537134147    1.79038143329194
H         3.61135838794858    1.00339331170205   -4.06945397870837
H         5.60411919406672    1.51564685727820   -5.09951583165525
H         4.85966755397432    2.90284522868918   -5.27454706904198
H         5.59478789526553    1.83607518099440   -1.80981138688533
H         5.71674203601342    0.42746682381118   -2.87881591621171
H         3.63568509063045   -0.35466302232837   -2.21670446867958
