37
 energy: -49.854691496986 gnorm: 0.335466467972 xtb: 6.4.1 (79825abcba525fcdf90b791dcacef51065a7a4e7)
C         2.57021538886702   -1.34630400056243    0.32870936998257
C         2.87479925973544    0.12750117225804    0.53647908798019
C         3.07982156832619    0.97094492722381   -0.79033556795394
C         1.58382633773275    0.85268757042240   -1.67129617936963
C         1.07283617411241    2.17381291320260   -2.22245692772765
O         1.79961299457230    2.67737592715480   -3.27387578829589
C         3.16687508894767    2.96932512683774   -3.12605974666626
C         3.43019528293413    3.49948616674552   -1.70827865260200
C         3.30796554070508    2.42847229762554   -0.53004557105238
C         2.21913178690304    2.95051677586385    0.39315887404665
C         1.17424070175733    3.27318255365481    1.10317639935850
C         4.60466346637192    2.60261975662229    0.24368507437148
C         5.67906947123018    2.40939490323123    0.95667326343617
C         4.20139236942202    1.78411718638299   -3.50890334258501
N         5.13511117635687    2.26722645508810   -4.64645512929598
C         4.99538071632723    1.15120304857246   -2.39147619990745
N         4.22890203330528    0.32826555445495   -1.46812168202893
H         3.44268472128837   -1.78503659594346   -0.15108935929817
H         1.73081409069155   -1.56352390324516   -0.34404836700654
H         2.50267634147583   -1.84972472254964    1.30304086492327
H         3.75417838546680    0.25738300607022    1.17660124400878
H         2.04687467370114    0.61173960227645    1.06659760539068
H         0.85701535523353    0.45743253871330   -0.96616933051490
H         1.73974392021483    0.09814081812846   -2.50094309108300
H         0.88881818193371    2.98076348898171   -1.48856456290266
H         0.11973528532777    1.93159119638088   -2.73023552747346
H         3.34984627989997    3.76293242521966   -3.85552490075625
H         2.71895659324922    4.36215372870260   -1.55269920193508
H         4.48033846937763    3.97228321760896   -1.62295254690382
H         0.41514043152753    3.69648764488516    1.72073760182874
H         6.60424523241983    2.26211160326841    1.47035801731472
H         3.57607806452714    1.01841218549938   -3.97422821995983
H         5.64984146612621    3.07749742929308   -4.30108672881389
H         5.84819463364544    1.57385423288867   -4.88522898699304
H         5.54715701197901    1.92873904660804   -1.83012329826075
H         5.69408888910607    0.42382104819236   -2.82732243585727
H         3.85919852136716   -0.48622449471584   -2.00240467112341
