37
 energy: -49.855086076972 gnorm: 0.324934175758 xtb: 6.4.1 (79825abcba525fcdf90b791dcacef51065a7a4e7)
C         2.54874576017510   -1.24954523609176    0.37049362727204
C         2.97397704950075    0.19682869183784    0.55816911509439
C         2.94114370692354    0.92823172412635   -0.84818795975517
C         1.29172187225638    0.84747126371875   -1.39678935477599
C         1.00908599129514    1.88068060062493   -2.47514769693087
O         1.96872185040868    2.01062143011914   -3.44955842904196
C         3.16520943807179    2.71440424532619   -3.22685514291360
C         3.31613536816569    3.35890437159812   -1.83608635581872
C         3.24965499695153    2.39014925652133   -0.56827805063601
C         2.30248376453593    3.08355896399974    0.39735409883676
C         1.64516204344043    3.52730590020222    1.43227066508302
C         4.58716482891040    2.46454001233362    0.15001532772054
C         5.71084654410471    2.62858955665730    0.79068951062566
C         4.40331267858744    1.89459137904423   -3.56428730504640
N         5.53407043502398    2.89091881528532   -3.92201342853404
C         4.84079769863942    0.97208235261080   -2.45198106420441
N         3.82994612284531    0.18075011469323   -1.76694702317404
H         3.34113138571764   -1.77884034535838   -0.15473732633121
H         1.60137012533227   -1.40841912712607   -0.16018564633335
H         2.46414384500147   -1.68999411481047    1.37357044859178
H         3.96049756642566    0.25516938993444    1.03072275733339
H         2.25644827569687    0.65381555895347    1.24902878377568
H         0.62302139492894    1.03660500511706   -0.56087505484754
H         1.09251390315419   -0.22193054628342   -1.71089291388535
H         0.81771150843119    2.81827487978752   -1.92023992861477
H         0.09033836118187    1.64840813615862   -3.04686796511939
H         3.14432687286167    3.61663535445084   -3.84406933263189
H         2.42565843270213    4.04763330576097   -1.75263551053830
H         4.34288390162339    3.88746365162454   -1.84163956172697
H         1.07122335499413    4.13497477896456    2.09418845975490
H         6.54608453678612    3.03504662807316    1.31859547150662
H         4.16549103657702    1.30266537949095   -4.45136895147181
H         6.42305414873849    2.39386307773978   -3.86362502712954
H         5.45099177283561    3.06118545310345   -4.92718665670452
H         5.39322656607550    1.56606052715524   -1.69955255367855
H         5.59010198403226    0.27225038929671   -2.84697212433456
H         3.27383264544344   -0.27246894413259   -2.52250200088015
