37
 energy: -49.850061811342 gnorm: 0.315602214364 xtb: 6.4.1 (79825abcba525fcdf90b791dcacef51065a7a4e7)
C         2.97685923979203   -1.38619496338127    0.37536370337975
C         2.73094490799108    0.10765729474233    0.50174744327731
C         3.02473837284985    0.92331846732844   -0.82575054063456
C         1.63809255317069    0.73305081181934   -1.85971849027365
C         0.98395306251306    1.98042646895241   -2.43104745468524
O         1.72904011509150    2.62084774724844   -3.39123897012734
C         3.08091944185509    2.91288674969374   -3.13899888821872
C         3.27727946324171    3.45266677275972   -1.69249255954924
C         3.27504375103194    2.39572140566015   -0.49536870475634
C         2.33167276375300    2.91808401664845    0.57588497758267
C         1.68323155667616    3.59085897751587    1.48524372493509
C         4.61455627753104    2.58365825369280    0.19802728205520
C         5.43347460473260    2.41766484282881    1.19895451511933
C         4.09179862296716    1.79733945076143   -3.57124161014535
N         5.01019961751411    2.54303188112231   -4.57110752907159
C         4.89880753588872    1.14618394800555   -2.47380170493130
N         4.26805135660586    0.37440906683642   -1.41370292119061
H         4.05120195627665   -1.55711254160841    0.35366679500480
H         2.46308545251887   -1.80036660476153   -0.50149452069406
H         2.54821115305001   -1.86648953101296    1.26580952109191
H         3.29398017096789    0.48719431976575    1.36132655618637
H         1.67319481379080    0.35284504325806    0.65013654629188
H         0.94067080543799    0.08320139475574   -1.33724049255150
H         2.04487475712193    0.04864102407305   -2.66475052248766
H         0.65149883599973    2.62666374023967   -1.59709216051019
H         0.06163884166969    1.69977804721460   -2.97463250960982
H         3.33059841575866    3.71466204651900   -3.83916115167832
H         2.46296576399306    4.22641910607203   -1.58086237666522
H         4.22684969205262    4.10956838533783   -1.67212180970331
H         1.14112213132458    4.01745330668286    2.29822403463735
H         6.40450401854460    2.70957487581294    1.53571118853055
H         3.51799083234155    1.16259144497074   -4.25071858420603
H         5.77874346861525    2.90909183549023   -4.00887438025357
H         5.44905617881468    1.79525666492795   -5.11378897829980
H         5.51652949593134    1.99131024183887   -2.11558736083325
H         5.62046387113620    0.48540979162928   -2.97363095031326
H         3.98794416317567   -0.54446745186097   -1.81711207188981
