37
 energy: -49.858944223959 gnorm: 0.325205023481 xtb: 6.4.1 (79825abcba525fcdf90b791dcacef51065a7a4e7)
C         2.89298111577084   -1.40530214036591    0.13932263737923
C         3.10726474532423    0.06032133697436    0.47706755053360
C         2.97789566095518    0.94885292655043   -0.82970094480716
C         1.33200924997196    0.79530990994366   -1.37335579447285
C         1.00713038659958    1.88739321804789   -2.37937222652779
O         1.93705429386180    2.00575706506667   -3.38360994868470
C         3.09104931209466    2.79026527512043   -3.21234431189782
C         3.28003932886119    3.44499845484939   -1.82975637281804
C         3.26935403404604    2.45934685236858   -0.57332462363935
C         2.21678155640009    2.96614043334579    0.39911932420118
C         1.55270314827345    3.28267202070612    1.47561508864794
C         4.56640016676059    2.58569946832436    0.20905527743574
C         5.46408109623414    2.89399013747534    1.10301392612813
C         4.35907953270344    1.94072821269258   -3.59302923373372
N         5.39683202410554    2.93072430989755   -4.17803088971391
C         4.85429838992552    1.08312327743385   -2.45333046714845
N         3.79752431057390    0.27561175513110   -1.86303143865334
H         1.83552703907759   -1.62623817928986    0.00942271711288
H         3.33269753732578   -2.07321412948333    0.89093759306021
H         3.29847987579618   -1.64104021978156   -0.85431417847803
H         4.12330094381747    0.23731618558109    0.84622412857378
H         2.35164987691599    0.37256818006732    1.20680702418866
H         0.76088609381925    0.80168226109701   -0.44844371701195
H         1.30345037095111   -0.26766023210455   -1.76225675825143
H         0.86059264500573    2.83493539314823   -1.82771982412187
H         0.07079719822941    1.57036867634323   -2.87705422439547
H         3.01323066930394    3.61946486383432   -3.92071053971293
H         2.43439517818837    4.18436653965723   -1.71803546195874
H         4.25244496667053    4.06783375523861   -1.84079097516628
H         0.81690631261223    3.56139016602808    2.19514371691240
H         6.40340460908256    2.97361414758037    1.60585182074070
H         3.94746503868205    1.33614330729637   -4.40475577036602
H         5.79633768882978    3.32426817446335   -3.32580785234936
H         6.12894447427396    2.34351782642039   -4.58480590955826
H         5.35688276499170    1.62718705234195   -1.63141809732856
H         5.59268679265022    0.38912146147888   -2.87804645785884
H         3.15789278792684   -0.01682658722500   -2.63172147407072
