37
 energy: -49.854739927868 gnorm: 0.323612592456 xtb: 6.4.1 (79825abcba525fcdf90b791dcacef51065a7a4e7)
C         2.74779758022025   -1.38167215081486    0.42542837403558
C         2.85179526006642    0.12963804994471    0.54017695646198
C         3.09991580302842    0.93086284822291   -0.80531316417934
C         1.72209265196817    0.62993759214196   -1.82468821090203
C         1.07840366279041    1.88171824130239   -2.39824812995720
O         1.76376625609541    2.52061754610403   -3.40291109341473
C         3.06907692311902    2.93722759955560   -3.08812596353838
C         3.27561279154944    3.45449282316538   -1.66484973058313
C         3.28448056902219    2.41879361883025   -0.44932822200103
C         2.28713023661827    2.93480637753326    0.57508331982637
C         1.41116589457433    3.19891088052575    1.50404551767528
C         4.62916795239943    2.57980994272124    0.24081782418254
C         5.60979809043848    2.90769133772607    1.03510657077553
C         4.09973085301662    1.87392563317498   -3.60750484741157
N         4.99394469219786    2.60913817873069   -4.63662756411497
C         4.91967648546348    1.11452546316294   -2.59229956688009
N         4.30295355867769    0.39901735261503   -1.48550228115152
H         2.35552063687281   -1.76912076091632   -0.51260052803268
H         2.01269447111260   -1.74647608923585    1.15407335182885
H         3.72659648508426   -1.85849094977978    0.57345656412336
H         3.67304712357959    0.46479468804892    1.18294341230810
H         1.93900549183596    0.57242274675739    0.95457793502494
H         1.02117957680357    0.06827563358010   -1.21236368689770
H         2.16937616854531   -0.02251455423262   -2.63475533436798
H         0.72664382288598    2.64347035368166   -1.67739544691723
H         0.17647958239073    1.57555591514879   -2.96190525436168
H         3.18019909342059    3.79823438085480   -3.75275337616933
H         2.48542607278180    4.21819833134330   -1.40674197846082
H         4.30824476451920    3.97144646374034   -1.67181039378997
H         0.76326494353726    3.53320128504955    2.28204073512335
H         6.58085779742201    3.03956155664507    1.46074478783893
H         3.47962171179320    1.22393203272831   -4.22945528122469
H         5.51190290961024    3.33394941831129   -4.13950222088090
H         5.67780277415064    1.94123581629137   -5.00064757549989
H         5.53715868245941    1.89020836968403   -2.10121082359616
H         5.43822121104788    0.32895234640223   -3.15906748441180
H         4.06414821887322   -0.58449652858818   -1.73289972357167
