37
 energy: -49.850537558868 gnorm: 0.318540244144 xtb: 6.4.1 (79825abcba525fcdf90b791dcacef51065a7a4e7)
C         2.57385888162687   -1.35907403634270    0.34631075148219
C         3.10458066161547    0.05824270981741    0.47893394281375
C         3.01138079958351    0.86488804697019   -0.88286844073272
C         1.41498531116758    0.64650723146618   -1.54006658082193
C         0.97306816974253    1.85913155457292   -2.34288211405068
O         1.84901547991558    2.04848058617836   -3.38409541122678
C         3.02603284734972    2.78766296222076   -3.17260289646331
C         3.17078191668352    3.36960138737794   -1.74690115328502
C         3.22404409742197    2.37014081809070   -0.50251950346782
C         2.16736606611039    2.87917675688777    0.46428436541219
C         1.41163330446510    3.52105615993589    1.31098047267982
C         4.59964714092773    2.40076723965511    0.14338312444701
C         5.83753439227292    2.63140178695675    0.48173068986979
C         4.29360668802583    2.05884241447696   -3.54849968542266
N         5.30502743273950    3.16338503814566   -3.94380097943745
C         4.94965478284508    1.19508464696738   -2.49818323957387
N         4.14666604604061    0.31742884753495   -1.66019240266144
H         1.53206987319591   -1.41876334698767    0.03807594650337
H         2.69027872584661   -1.96115274749552    1.25643692056045
H         3.05820905194123   -1.93030494670498   -0.45768922852799
H         4.16821865732625    0.01542246721570    0.73734050831076
H         2.49378590095425    0.53267640200393    1.25534494985454
H         0.83348425528418    0.52450552873492   -0.62976073995201
H         1.44483362483848   -0.30634072195976   -2.15093068019582
H         0.86339981656620    2.67087686628623   -1.59946281270709
H         0.01571966266645    1.60496835462533   -2.83663982232512
H         2.98768422535217    3.66711369628799   -3.82106739151155
H         2.32946080834127    4.09188629961367   -1.53537324518120
H         4.15900866452551    3.96218025110740   -1.82355938255183
H         0.62209025601372    3.92098538751478    1.90552283994919
H         6.78879486863715    2.65599229932261    0.96754278336815
H         4.06640940448021    1.49395109239916   -4.45576401205566
H         5.77026037980187    3.62168619156250   -3.16003825217791
H         6.08860289861861    2.79479674253659   -4.48824396847277
H         5.48848576702034    1.87573520203682   -1.81224418888457
H         5.69569367873350    0.54872846033866   -2.98076926549300
H         3.83176264251167   -0.52662771067992   -2.18358270861239
