37
 energy: -49.852862784832 gnorm: 0.320365901939 xtb: 6.4.1 (79825abcba525fcdf90b791dcacef51065a7a4e7)
C         2.51424451790219   -1.31975241489162    0.47002959350640
C         2.70652496918837    0.18435622723656    0.56344639145837
C         2.93628492874630    0.93389512102120   -0.81469382400966
C         1.46546054103557    0.92722358639427   -1.74459126034797
C         1.13419791029967    2.21520634053255   -2.48054423673759
O         1.95381230036034    2.63230493504406   -3.50109452460444
C         3.30647294513078    2.81998630906248   -3.16706692998304
C         3.50270173057625    3.32513807734573   -1.74557643189023
C         3.33461025117733    2.36232096581878   -0.48265422812421
C         2.28209852089533    3.03995589457010    0.37956720690176
C         1.74115183137952    3.78748338940894    1.30077016303978
C         4.62380559919819    2.40808168360994    0.32126948873326
C         5.63752722201298    2.72797940982120    1.07629940343197
C         4.19509460641143    1.60731573627528   -3.55752395995687
N         5.21623353007933    2.25364708665685   -4.52643083237461
C         4.84714279327141    0.99775116643063   -2.33977792027894
N         4.03858042946696    0.17701402445148   -1.45100533748502
H         3.30461372362263   -1.86693736442682   -0.03967718149937
H         1.59132653554341   -1.63178834303682   -0.03518122934233
H         2.50285311926098   -1.66565191025645    1.51288125285106
H         3.64218259661638    0.34937075394572    1.10865123582562
H         1.92564296820346    0.68350287316653    1.14829470176928
H         0.70930437424601    0.76035457217156   -0.98165797310636
H         1.41284518540641    0.02335572777134   -2.42445860800364
H         1.03909026559351    3.02644336579651   -1.73456911582893
H         0.13799250076720    2.05590928458236   -2.93563873302965
H         3.59433409837667    3.64964637244471   -3.81838140661469
H         2.80163208694476    4.20682664311291   -1.67217757193457
H         4.57877466942977    3.74308439629437   -1.77729729169872
H         1.03173907766660    4.24750992100101    1.95031723943888
H         6.42772301875515    3.18804696394663    1.62896844846883
H         3.65580839150513    0.82970615577101   -4.10373187684824
H         6.02059416526690    1.63981771056174   -4.65675013443899
H         4.76630987059512    2.35219935974779   -5.43973371794604
H         5.28202994252559    1.79496061344119   -1.70774417605818
H         5.68322748875334    0.33129389899832   -2.59283269535443
H         3.68177654986327   -0.73975537566077   -1.79416404394365
