37
 energy: -49.855613267652 gnorm: 0.320666047390 xtb: 6.4.1 (79825abcba525fcdf90b791dcacef51065a7a4e7)
C         2.75587044166895   -1.44211256627022    0.16070304815346
C         2.86993085964703    0.04803519275786    0.43363372562814
C         3.11642273427578    0.91512335684296   -0.87069311885199
C         1.64879328724960    0.81276252157370   -1.80002847087983
C         1.09069995954176    2.14095177024903   -2.28449358433510
O         1.83870730872361    2.62950131185299   -3.32807694322856
C         3.19507209460401    2.91186072943883   -3.08925215610172
C         3.48466773919591    3.40249783409591   -1.65442704309303
C         3.26362273731946    2.38363521042525   -0.44475679968330
C         2.18117316173214    2.95396547577764    0.45714235449569
C         1.50952004964436    3.44360308493098    1.46171822015344
C         4.44320034216056    2.54445954381458    0.50030624709598
C         5.39393757822289    3.00062830939229    1.26714721153806
C         4.07163465703702    1.80184098416393   -3.56343792628497
N         4.95371723902668    2.31154280057483   -4.73022146242783
C         4.91218188545873    1.10091841502900   -2.52332777405829
N         4.27060872786188    0.25809602814724   -1.52566372044665
H         3.74901035328878   -1.85415650034971   -0.00599655944688
H         2.08248620655530   -1.71575822283157   -0.66152181443965
H         2.42595266668958   -1.90357460291453    1.10172528951294
H         3.74554785170519    0.18436000933413    1.07756209096339
H         1.95224734588308    0.43434189160619    0.89144997989761
H         0.87986672490159    0.29272667873721   -1.23434368138345
H         1.84431819983952    0.15046147339138   -2.69729789642571
H         1.01578702458181    2.85684725854229   -1.44454622989750
H         0.08792212061269    1.97863518466350   -2.72381317454522
H         3.41830210224772    3.70872778726717   -3.80380213169490
H         2.90833525598112    4.35642596551374   -1.47519885013780
H         4.57240221485752    3.78283406125197   -1.57829316911625
H         0.72546178372565    3.65254628908406    2.15338114024037
H         6.28678271608681    3.04337488093274    1.85239490753050
H         3.42629815084311    1.05774837440040   -4.03642455570583
H         5.42756230056433    3.16979362817853   -4.44801226793405
H         5.67868035289637    1.60738582875161   -4.88788392861896
H         5.51842461175508    1.88193419903744   -2.02671878227475
H         5.62033616997773    0.43074927569651   -3.02991484505437
H         3.86379084142851   -0.61663708177532   -1.91920435745804
