37
 energy: -49.855713157355 gnorm: 0.330018948784 xtb: 6.4.1 (79825abcba525fcdf90b791dcacef51065a7a4e7)
C         2.41917581198815   -1.23448604982658    0.46951800825365
C         2.83181840208052    0.22251147720955    0.59168828513615
C         3.04052298528266    0.90024875767814   -0.82640311584636
C         1.51718494610157    0.73284189982473   -1.65071755432888
C         1.10925660128129    2.02603736063345   -2.33737704400947
O         1.88279289851991    2.34596450246632   -3.42666584725746
C         3.19188654958005    2.81431354023061   -3.21830907716476
C         3.47186835509078    3.37968376086297   -1.76394347697753
C         3.32048591350817    2.37791116352054   -0.52952902420408
C         2.26855387830904    2.99109749715276    0.38032663230592
C         1.48397353594698    3.54950437453361    1.25933229547198
C         4.57621719657741    2.57325464896522    0.30437253538618
C         5.60928845442518    2.86349316996668    1.04502200719336
C         4.18662059982928    1.74531764491475   -3.57389310481609
N         5.32052879704324    2.48138407449446   -4.33000675692219
C         4.91945455819628    0.97992785005433   -2.49835878580489
N         4.16942511883268    0.22473709108201   -1.50616827284796
H         3.06343650692170   -1.75358193244067   -0.23713853384233
H         1.44228450352048   -1.18951676740792   -0.02852128061323
H         2.39264986724178   -1.68122889648422    1.47302835273719
H         3.76527655581286    0.26749542749868    1.16314749766320
H         2.08678038454010    0.81046354013790    1.13959552532663
H         0.79455062464355    0.53104076281144   -0.86410420847951
H         1.60808163372074   -0.05942973888290   -2.45446411555436
H         1.02524221889411    2.82821797804736   -1.58035808987263
H         0.09719723277495    1.89180882100119   -2.76472971383438
H         3.32798646205963    3.66686724410138   -3.88915884248574
H         2.87533710700848    4.32996373826357   -1.63993060354612
H         4.55704261289747    3.77293114378108   -1.80097899523245
H         0.84609414876425    4.16692544713488    1.84984338429922
H         6.49237517776405    2.93835888910319    1.64173595346607
H         3.67591033912997    1.09901482548723   -4.29174898518348
H         6.09241691351497    1.82597928540545   -4.45409927475586
H         5.06797477320175    2.79482726583315   -5.27034490968233
H         5.56248593804697    1.63481030237292   -1.88047853283583
H         5.54576045545094    0.23483229926639   -3.00807750216009
H         3.77538628200894   -0.66502775981354   -1.87843826159798
