37
 energy: -49.856864924247 gnorm: 0.325429393125 xtb: 6.4.1 (79825abcba525fcdf90b791dcacef51065a7a4e7)
C         2.39816921948709   -1.21633153900650    0.50289817068542
C         3.08149402992943    0.13845069858027    0.57822127285170
C         2.89021056695431    0.92186255160125   -0.78689599367920
C         1.22945353921623    0.92786491395309   -1.30644213964717
C         1.06404627540289    1.90927462835567   -2.45524007609727
O         2.04780994649413    1.87685694157341   -3.41358239968935
C         3.19959910537209    2.65808625763757   -3.21470544954397
C         3.32404278953759    3.30271510421796   -1.85541153670328
C         3.29890588758808    2.38896590023011   -0.54595570935640
C         2.40415334017104    3.16529180592742    0.40647898731807
C         1.60040558388805    3.87518320621908    1.14815225589647
C         4.70051254753410    2.48036453053885    0.03504089827067
C         5.69932543095727    2.76835731788870    0.82210461598412
C         4.43048565202876    1.80031221437310   -3.58557548779112
N         5.63525061491905    2.76041902152850   -3.74677643826316
C         4.79645836933761    0.79631992647644   -2.51894308808919
N         3.68201769732471    0.19288127729827   -1.80397243016416
H         2.79115873258025   -1.77594608514369   -0.34343902525936
H         1.30230815052102   -1.16569588400600    0.47278926575910
H         2.63075033931324   -1.79366383025316    1.40838657838274
H         4.16446060965101    0.07622816008032    0.73068456380479
H         2.64836769231358    0.68870054456279    1.42119120258594
H         0.52665719126400    1.23943046363358   -0.53787931272683
H         1.13414733390783   -0.17537622325513   -1.54253706223306
H         0.92633421036387    2.91582432248622   -2.01760671726537
H         0.10060257134582    1.79556241903304   -2.98792904091398
H         3.09168907650072    3.46536405391807   -3.94413563612721
H         2.50389008810264    4.06891658082012   -1.73480635121690
H         4.29795540643611    3.90981933699908   -1.98400770104949
H         0.81590273061484    4.33656473762922    1.70356619434158
H         6.65674596059496    3.02318096471668    1.22201141340601
H         4.20285238799359    1.27054284460142   -4.51367940532731
H         6.39771030147452    2.12616343526297   -3.98581771621909
H         5.44328989927621    3.33688215143096   -4.56964177002209
H         5.46448851202538    1.27189355729969   -1.77617674595635
H         5.36465034825409   -0.02130443319322   -2.98358048235413
H         3.06163106739578   -0.12268398286304   -2.57926078643414
