37
 energy: -49.855201314544 gnorm: 0.329198547088 xtb: 6.4.1 (79825abcba525fcdf90b791dcacef51065a7a4e7)
C         2.59419177255724   -1.31720538322913    0.34764638423918
C         2.84781795979011    0.16771555656082    0.54443265707054
C         3.11125916447166    0.93251247551294   -0.81922164306915
C         1.59158967140086    0.80317134300451   -1.65704837590164
C         1.06641243303714    2.06795615645292   -2.31641893396490
O         1.80371837361946    2.66783490727667   -3.30827946359081
C         3.16108584428290    2.93992204024621   -3.06330662088460
C         3.47640062661186    3.43267422237084   -1.65758941976777
C         3.39143579843297    2.35260027414576   -0.48436084449039
C         2.31578142364482    2.98292299642564    0.38515444061139
C         1.21782166090042    3.53787735035220    0.81706363885148
C         4.64492308438737    2.44999776954211    0.36986120406154
C         5.64279902271095    2.74896328782399    1.15401651474826
C         4.12458550629054    1.75953665701319   -3.50546497246943
N         5.17475532623189    2.41517056816720   -4.43634464632372
C         4.96376387649967    1.02873542253610   -2.48499917752785
N         4.22942868721247    0.24421825848916   -1.50388557278489
H         3.41731071369410   -1.87375523291322   -0.09577589802443
H         1.69352915262167   -1.49707250768715   -0.25305042842413
H         2.35943983959467   -1.81457536842813    1.29887213875217
H         3.77072825964990    0.18880013146317    1.13411505568238
H         2.06708182564097    0.64271162179750    1.14924787392702
H         0.89055655414651    0.50554234676248   -0.88138468180695
H         1.68797370182051   -0.05488856194282   -2.38944745434290
H         0.90146083429313    2.84369421152902   -1.54528256715548
H         0.05154323354893    1.88450322936690   -2.71803728764711
H         3.42060879866889    3.75608429458136   -3.74296640528221
H         2.77025339890306    4.26719718703766   -1.37618529710721
H         4.52989108720241    3.90567595060963   -1.65084236977044
H         0.57655285029119    4.09206553820644    1.46394234579344
H         6.49276119147292    2.73181622701515    1.80115241145227
H         3.56669342018196    1.02066663014221   -4.08570360735962
H         5.99851569851810    1.83507586702067   -4.59657773168629
H         4.69881989484473    2.58448438619452   -5.32577384916644
H         5.62918934439531    1.77402315023786   -2.00971869356686
H         5.57179622991157    0.29663362929269   -3.03414692456129
H         4.00496191556125   -0.66480030995622   -1.96086801221736
