37
 energy: -49.855253531818 gnorm: 0.322791421101 xtb: 6.4.1 (79825abcba525fcdf90b791dcacef51065a7a4e7)
C         2.62283851950899   -1.41636057162928    0.40268316807968
C         2.99056347701593    0.05052045744666    0.54787159525603
C         3.07178504033646    0.86564452834646   -0.80964247545717
C         1.55315426733044    0.75322801515727   -1.65178333863386
C         1.09041825199354    1.99467228796472   -2.39673487149870
O         1.88107069411377    2.46391650655349   -3.41748971716684
C         3.17495720715701    2.93103502132526   -3.12740776927078
C         3.27862021170965    3.41428341201475   -1.69058544087959
C         3.30180558899172    2.37538124496521   -0.47798958031873
C         2.13855103869033    2.84072061814287    0.38264616747155
C         1.30916951905718    3.42499379916265    1.20166180107270
C         4.53720329623373    2.58125650802336    0.38330002861523
C         5.66002252006783    2.54984321052356    1.04536228244699
C         4.19028605848946    1.87943639134603   -3.60308517304201
N         5.16441199654092    2.60413001922633   -4.56493092253259
C         4.97246017293193    1.20448487597857   -2.50204687834266
N         4.19048934920136    0.34368646100626   -1.62749157668026
H         1.73405384007500   -1.53600732492793   -0.21346802668766
H         2.44363051705429   -1.87144595859152    1.38511066185151
H         3.47819205765090   -1.90108992858301   -0.08795272899990
H         3.99774985949570    0.09076345896853    0.97669487330054
H         2.43474611212331    0.63699169343960    1.28820271428596
H         0.74373401085582    0.53309442144384   -0.96036113300147
H         1.72677389550487   -0.09921546376024   -2.37646356589474
H         0.88693310198982    2.79715459384898   -1.66308250243012
H         0.11944854514227    1.76138718875253   -2.87392211079199
H         3.26295756426501    3.81236569112625   -3.76844021727612
H         2.45236732920736    4.16767309221000   -1.53575998953362
H         4.16509527087864    4.12424728608992   -1.48146449075299
H         0.57287478801495    3.79858829854190    1.87627238826339
H         6.51716619616182    2.85889422602510    1.60331098412348
H         3.59644486898283    1.13502686264666   -4.13886167956445
H         5.64995482182599    3.33085372634690   -4.03873089098271
H         5.79873940487474    1.86279297579350   -4.87203699175394
H         5.49535456423501    1.94064728225005   -1.86268566912244
H         5.81645419972929    0.64894512238562   -2.93365931018051
H         3.84496172735913   -0.54622435685641   -2.04486723240474
