37
 energy: -49.856584106256 gnorm: 0.321661485553 xtb: 6.4.1 (79825abcba525fcdf90b791dcacef51065a7a4e7)
C         2.90574820680783   -1.37669156561159    0.34908707969701
C         2.88583046642049    0.13195931078381    0.52689904317311
C         3.03105635467097    0.90623227327653   -0.84906587898575
C         1.51079556898988    0.59363533411674   -1.63593844078994
C         1.01987911523764    1.87120943419245   -2.29704867632410
O         1.74175597141428    2.30655285842596   -3.38177527030051
C         2.99297419518272    2.89245764112682   -3.12166357465287
C         3.23479436021315    3.47012341700472   -1.75672411509913
C         3.24677296631540    2.44446944789357   -0.53274108718646
C         2.24763790254985    2.84440165296028    0.54065500366080
C         1.43282864482759    3.49791400777429    1.32106706760714
C         4.61722126357221    2.54482597049859    0.11703734043202
C         5.64182241245792    2.56990672830137    0.92301482249465
C         4.18534860030551    1.94590962457466   -3.55954384745875
N         5.16323323908158    2.78638229350022   -4.41779600704172
C         4.95172338096079    1.21949733056219   -2.48036077922303
N         4.14363481715845    0.34209334876556   -1.64702148322375
H         2.46009340073308   -1.65136533565831   -0.60476928305679
H         2.40859308991095   -1.88222361009546    1.18673625443469
H         3.92374253689201   -1.78878269030820    0.38350011731858
H         3.76019365071370    0.33937253707149    1.15331910008752
H         1.96567006021969    0.47741828016220    1.01159951472969
H         0.87671196683424    0.35618668949918   -0.78550282063075
H         1.63899259424051   -0.21294646528498   -2.42013000901659
H         0.87301449075321    2.64196041694215   -1.51730284526417
H         0.02562931635840    1.67254053236761   -2.74079384595116
H         3.13150840633122    3.66826615966127   -3.87951568866299
H         2.47079351352393    4.28162640742361   -1.57776500815841
H         4.22698332195861    4.06093610502410   -1.76766645294690
H         0.78747245434434    3.83063675482019    2.10184438281489
H         6.57969357142463    2.52937811786480    1.43318118372709
H         3.83102075451681    1.24755076416477   -4.32151238327977
H         5.63453842975542    3.39190391617097   -3.74550095528161
H         5.89216186029400    2.17993381708996   -4.80139647802135
H         5.42995651362808    1.99310866360009   -1.85031715763479
H         5.72168764072159    0.57791880323652   -2.93066252089827
H         3.78678165435095   -0.49157444647578   -2.16003889692573
