37
 energy: -49.858256287715 gnorm: 0.322805382448 xtb: 6.4.1 (79825abcba525fcdf90b791dcacef51065a7a4e7)
C         2.83627303264328   -1.42672093637785    0.31866584503469
C         2.89967067992924    0.07943731823018    0.50710503396712
C         3.05912867456921    0.94341369452517   -0.81273837156810
C         1.57915009986198    0.72248467349945   -1.70095676661956
C         1.03971089108064    1.92735631257606   -2.45431654954104
O         1.83557301268703    2.45301288862024   -3.44302809674197
C         3.08925065540750    2.97239375093839   -3.07557001740538
C         3.21394290093408    3.46666212450102   -1.66330653312861
C         3.15845520512507    2.43156738272882   -0.44850449927539
C         2.13068079350476    2.75943984478086    0.62227802313555
C         1.32998133873013    3.42149464151829    1.41005930135110
C         4.48332490327273    2.58260224062727    0.28109863504557
C         5.70791926083336    2.63747567384680    0.72538884168823
C         4.16374141244902    1.93784850855634   -3.54477855539733
N         5.23812494629031    2.59920335955080   -4.44342154717016
C         4.93791485628517    1.27409198923020   -2.43134962548731
N         4.21355772800839    0.37512529962949   -1.54564939508755
H         1.82789943935965   -1.75930229362339    0.08103549331354
H         3.14112028757797   -1.94752866553371    1.23529524593223
H         3.60821291632181   -1.72794519865552   -0.40292168817328
H         3.75600845183664    0.26287507399447    1.16510923024930
H         2.00349108037673    0.40699775993186    1.04612071290017
H         0.78340855631563    0.31045989747232   -1.08555803641233
H         1.86460709247385   -0.08518371593770   -2.44132908519345
H         0.78423182849281    2.74216464575549   -1.75114680822928
H         0.08287645988800    1.67003457866477   -2.94743435208295
H         3.20904741204862    3.86575634738852   -3.69440959286616
H         2.44808241551044    4.28121482164330   -1.50767113208096
H         4.22176558879801    4.03040072859588   -1.65279383977730
H         0.66247904022493    3.65787142187878    2.20715964276101
H         6.65585853418594    2.60208146683716    1.21699130595297
H         3.65351418459542    1.17949157887208   -4.14345402085672
H         5.95542394613353    3.04617340957842   -3.87204988695312
H         5.70505736641320    1.88332783371414   -5.00534890657115
H         5.46896659063234    2.04411691199834   -1.84043333477381
H         5.67480289467965    0.61186455862260   -2.90641854216572
H         3.86264215954321   -0.42062734768394   -2.11938193510300
