37
 energy: -49.854357520706 gnorm: 0.325661082793 xtb: 6.4.1 (79825abcba525fcdf90b791dcacef51065a7a4e7)
C         2.73986995759379   -1.46416582840419    0.26251861153161
C         2.83512898262230    0.03084260486536    0.51533629257229
C         2.99293806943705    0.86401706603353   -0.82435966355256
C         1.45577648440243    0.85292840735675   -1.63988981841980
C         1.08150014970454    2.15384591653802   -2.33111492502826
O         1.89434096834364    2.50271649835559   -3.38222909409481
C         3.21654434236636    2.92156216346459   -3.15236805249089
C         3.40475346991002    3.38316677489473   -1.69464568275293
C         3.27614057766395    2.33243122458807   -0.49896279855748
C         2.24562919421651    2.95957520159571    0.42577094852232
C         1.48448324644725    3.66367150804045    1.21630291383365
C         4.49485548844241    2.44617185958397    0.40226357344831
C         5.57372216966112    2.79162116450059    1.04782360399255
C         4.22996263421854    1.82596183330048   -3.52006087503668
N         5.20681154269185    2.46651327913607   -4.53726758878729
C         4.91739671676166    1.11591513635121   -2.37861035483851
N         4.08210768409907    0.21976676795740   -1.59342910838525
H         3.46569943271961   -1.77629556825597   -0.48557392641526
H         1.68862750139574   -1.71313416983516    0.06942262154947
H         3.04339854439735   -1.96333293375663    1.19311971089147
H         3.78716989199571    0.27507996965175    0.99896789672864
H         1.95270839007173    0.47549926350109    0.98924131824890
H         0.64545176121095    0.50740212641019   -1.00296749262432
H         1.51816222256500    0.07412346356822   -2.45936280205180
H         0.96552552796239    2.99472586091962   -1.62181903314778
H         0.11223214894682    2.04222786617136   -2.85358284167217
H         3.39190096056282    3.75923967627179   -3.83277737984518
H         2.60411807180692    4.16099242562968   -1.52662492680659
H         4.44990849377736    3.87124508060721   -1.63942934342747
H         0.77686968860461    3.93257178616727    1.96715437482112
H         6.40932613316201    2.67658083159573    1.70360276609851
H         3.69559091647918    1.10135744339953   -4.13912849260376
H         5.87117288141583    3.07419731997418   -4.05757000385834
H         5.65295732502064    1.70205832827493   -5.04993568774112
H         5.37793475535226    1.82631179030464   -1.66630585691827
H         5.69913547084266    0.49611591809909   -2.83901569346574
H         3.63695985419994   -0.49726751784862   -2.20436141372911
