37
 energy: -49.854170894895 gnorm: 0.321846285296 xtb: 6.4.1 (79825abcba525fcdf90b791dcacef51065a7a4e7)
C         2.45223225925162   -1.30589947221553    0.51212051077998
C         3.03416746623100    0.09579562729490    0.58026403902675
C         3.00947308172271    0.92870347332903   -0.76863304875039
C         1.38816300286501    0.83012552193076   -1.39290394105822
C         1.06923585794871    1.90127058148282   -2.42304714801573
O         1.92426279730888    2.14882587145068   -3.46942527638157
C         3.17551627783986    2.72992172226213   -3.19890375836909
C         3.40630548413242    3.30775741670213   -1.80701277059113
C         3.28286633477537    2.43781954317010   -0.47351553390111
C         2.21414369978098    3.16076518230477    0.32996273042746
C         1.25077830573600    3.66985820277798    1.04605413932441
C         4.58632436570381    2.54681378131071    0.30077728426848
C         5.81464506820505    2.51091991139854    0.73663978649867
C         4.33185877242792    1.80760245057039   -3.62703823425604
N         5.44062378394646    2.80113866032999   -4.05456062257173
C         4.90136100467450    1.05336769422073   -2.44956706270596
N         3.99948554552724    0.25126059936635   -1.63682840790317
H         2.87514202556082   -1.84351306359870   -0.33405606819555
H         1.36404892459230   -1.22922836122430    0.39228491883689
H         2.68913902722612   -1.76702567254477    1.48091028103272
H         4.07102059660795    0.06472642236604    0.93226347468683
H         2.49663372579914    0.61752470613921    1.38015644801511
H         0.72405809299140    0.93801220705962   -0.53908326362428
H         1.23046204985209   -0.15041494632284   -1.93662803615614
H         0.91269620999171    2.84224267590760   -1.86296080423213
H         0.14945879575310    1.55778162260005   -2.93386733326072
H         3.31135371196565    3.61826519938142   -3.82164324639313
H         2.65112965011607    4.13168035402120   -1.64851602692849
H         4.47236768736078    3.74856226571256   -1.86012367597622
H         0.59537470258262    4.26245817177974    1.64277319807301
H         6.74366586841803    2.44184854571989    1.25976891516493
H         3.97600864437709    1.18978923797641   -4.45500374712006
H         6.23920641161467    2.25447126943036   -4.37733950262770
H         5.15693650228855    3.44120706411075   -4.80028173357970
H         5.37377439607147    1.71776106395181   -1.70154070838327
H         5.66600463298337    0.37032900921210   -2.84455807911579
H         3.49224312974178   -0.44458544608275   -2.22337461412711
