37
 energy: -49.703351908144 gnorm: 0.324857256937 xtb: 6.4.1 (79825abcba525fcdf90b791dcacef51065a7a4e7)
C         2.16528135300730   -1.41843886913024    0.04476716859714
C         2.78244887823958   -0.07467070911987    0.39323905433654
C         2.66468654472839    0.97227822813947   -0.79162321656152
C         0.99188877734228    1.27346018170687   -1.16460470477761
C         0.98835339069376    1.58871473704524   -2.65150192875528
O         2.06191344820326    1.95799718011664   -3.42504000519955
C         3.01100097020988    2.93001657264488   -3.06323794888343
C         2.95597499787938    3.53132006460270   -1.61897633848465
C         3.29964353205647    2.40371013831492   -0.54165004464873
C         3.05254085769433    2.63602077520872    0.94002732730340
C         2.79288818348992    2.99561691364258    2.16612146557157
C         4.74151240003710    2.80105944895135   -0.27046793013370
C         5.88726435863434    3.35561359318140    0.01194771171523
C         4.41974604224408    2.05385032765918   -3.58268954778938
N         5.80981922502128    2.72492166778622   -3.45381268335357
C         4.60010957957729    0.99641027212740   -2.52017802183527
N         3.45555655295187    0.36147545036164   -1.88444584788417
H         2.43851587940873   -1.70716009727961   -0.96808957981161
H         1.11211008890516   -1.17531446522385    0.23477456534775
H         2.35977204393701   -2.36709124510101    0.56394714591674
H         3.87716640283275   -0.11286547127966    0.38499202259723
H         2.48274010894259    0.48826953242782    1.28444304760325
H         0.39713955317033    1.80390877810048   -0.42529268425165
H         0.58797446448043    0.23083786199461   -0.98639971590796
H         0.17711952109983    2.30705250182943   -2.87403354565780
H         0.72329392869288    0.68120226299033   -3.22689428311010
H         2.65591531597423    3.82156530806913   -3.58713244424814
H         2.08292751257576    4.22217528435687   -1.43251479964849
H         3.89971393491870    4.18120545125005   -1.76258729886097
H         3.39638544438232    3.07175394721506    3.04179062524852
H         6.71520360044125    3.60780663234525   -0.61449456433887
H         4.03041348089306    1.68957796523319   -4.53640605294208
H         6.49734423011128    2.42235900263012   -2.76350053956185
H         6.14303150596057    2.96087793181682   -4.39166140673852
H         5.45673594590946    1.25328805976135   -1.86876305483137
H         4.96859253627557    0.18045984879411   -3.15711196165266
H         2.93992982246836   -0.26519342877356   -2.53785860390366
