37
 energy: -49.802673478046 gnorm: 0.338843332137 xtb: 6.4.1 (79825abcba525fcdf90b791dcacef51065a7a4e7)
C         2.84889162281342   -1.39392008854721    0.35541579178856
C         3.02111775145371    0.10519685452527    0.53156297193686
C         3.24288494097444    0.92422665591606   -0.80779439036175
C         1.73064383468977    0.86465329333303   -1.66666340360770
C         1.14529023782770    2.10190126555232   -2.32760206241010
O         1.81608713184213    3.00913446088383   -3.11132480174110
C         3.21857556319129    3.06844195399845   -3.03387563669211
C         3.77804292394425    3.44177098842428   -1.65200839994204
C         3.40130110480426    2.40231224597350   -0.49969106186461
C         2.29865031464441    2.96353350840550    0.38325161190120
C         1.23464051727210    3.25929669211043    1.07639157941036
C         4.33738328127312    2.63350622265174    0.67534577924430
C         5.15993591503648    2.31780831808763    1.63647969829364
C         3.89403709091675    1.80265638309855   -3.75121077298457
N         4.82616698890731    2.37051228520355   -4.85026626342828
C         4.73140477276148    0.92034675185356   -2.85679124055637
N         4.18929241677236    0.21955327944829   -1.70253738683144
H         1.82429356552044   -1.66178178690479    0.10572642797163
H         3.26963065627068   -1.88233692794178    1.24356535964819
H         3.57603837316581   -1.57229887259010   -0.44879464157467
H         3.94339595953086    0.16974867428491    1.11907406255172
H         2.26492839119192    0.69393439634775    1.06310542366927
H         0.96233946171606    0.59414481068250   -0.94678968654309
H         1.88887839893602   -0.05180594916970   -2.31244151675410
H         0.45977831752282    2.51964086797765   -1.56655220339831
H         0.45026953813196    1.58135451017974   -3.01381563924238
H         3.50655266966980    3.96972052167721   -3.58175932997153
H         3.36672540223153    4.45670944735119   -1.37818621761576
H         4.92788091179023    3.42355299694912   -1.75764464817361
H         0.42144069572437    3.71685801584681    1.59228491490130
H         5.74497307833277    2.69044207523708    2.44912368461344
H         3.14046215605197    1.21142761074497   -4.27696996315500
H         4.77045883647238    3.38572199539118   -4.76653155745566
H         5.64832601132574    1.79350889042792   -5.04362508779896
H         5.62704557015159    1.53954877033429   -2.66044254262824
H         5.02063940732530    0.15336949151775   -3.58845293481090
H         4.91881619196387   -0.00175296771468   -0.99236019362937
