37
 energy: -49.854927654009 gnorm: 0.322739400342 xtb: 6.4.1 (79825abcba525fcdf90b791dcacef51065a7a4e7)
C         2.42914109684077   -1.26760639733028    0.54056747898161
C         3.00907417898471    0.13640591267990    0.51892651913394
C         2.96894264405995    0.92761573289606   -0.85447987605618
C         1.29319291401424    0.94124370597568   -1.32326047712421
C         1.06221502671552    2.01302139828598   -2.37597272797396
O         1.99620601131792    2.03432353479407   -3.38318121474757
C         3.19721234798067    2.74205278368826   -3.20099273640027
C         3.57262466720677    3.37797840250619   -1.83906674236030
C         3.32074480158301    2.44283682337084   -0.56929875422248
C         2.21452691278376    3.02112564358775    0.29803036690334
C         1.48137291306866    3.59030260830423    1.21375863450069
C         4.59575535247650    2.44698899625114    0.25819311033662
C         5.58887544563923    2.89323442823143    0.97555893910647
C         4.34757578274189    1.82977813338852   -3.63058188560667
N         5.60190639087963    2.61641142104855   -4.08567774322769
C         4.81734029062461    0.93149286052323   -2.51163322916248
N         3.79934506651579    0.16216873060943   -1.81225824870887
H         3.06430762608740   -1.86375277567364   -0.11140554392968
H         1.39584929866727   -1.24561893701710    0.17150568252179
H         2.42220565140089   -1.59590494795928    1.58913210242764
H         4.04955699581401    0.14865686840390    0.86124031398795
H         2.46876157783336    0.78595949202947    1.21686208949397
H         0.75093024419959    1.05677675922665   -0.38822682644539
H         1.08790123744303   -0.09067711874682   -1.74154247662472
H         0.95254676114016    2.97759781814861   -1.84569444429162
H         0.10311793258317    1.76375119208833   -2.86883061723680
H         3.18421398606058    3.58003150270210   -3.90315590893515
H         3.08798953052912    4.38073992307777   -1.65505893260227
H         4.70538758676716    3.53360177931313   -2.00107856571541
H         0.61760173516047    3.80588481849388    1.80046632137903
H         6.48809256991717    3.08984534391930    1.51802302952254
H         3.94972022358742    1.22257019239335   -4.44719613984974
H         6.32656865963961    1.95028397651336   -4.35382784815133
H         5.35749152937201    3.33186122942716   -4.77463271843488
H         5.51470257061519    1.47531878267000   -1.84674556517245
H         5.39214668460104    0.13333837990068   -3.00131339119943
H         3.17541731229870   -0.31744590196768   -2.49505909897046
