37
 energy: -49.856004286277 gnorm: 0.328050017712 xtb: 6.4.1 (79825abcba525fcdf90b791dcacef51065a7a4e7)
C         2.62447542102761   -1.29676348159416    0.55490185984317
C         3.21687466147427    0.10143193438630    0.50849069602179
C         3.09152501462188    0.92952920783682   -0.83776745814390
C         1.48598469388994    0.79699578943495   -1.49560733431743
C         1.08923501939037    2.02740461672929   -2.29494775155058
O         1.85092046952878    2.30549194805467   -3.40389526487343
C         3.11114770253958    2.88250746965912   -3.16858703919630
C         3.39064714866964    3.35336195831317   -1.74183039256617
C         3.32858130173886    2.35649087676723   -0.49578069151305
C         2.22885498229790    2.74399529447255    0.47932862344862
C         1.15998427524562    3.22176845556906    1.05316109454284
C         4.57012551567083    2.54334928648114    0.36099458719764
C         5.59187319414055    2.83472046860453    1.11675298299743
C         4.21079531308110    1.92921036465350   -3.68666941335031
N         5.22790543967569    2.72695914941530   -4.54009387407182
C         4.90803089710557    1.17277370812785   -2.58154166279253
N         4.06048810958649    0.31110419524048   -1.77129717483126
H         3.06850201851828   -1.90219788696415   -0.23261665319519
H         1.52797368937372   -1.27476628499546    0.51512656622058
H         2.77886537558372   -1.83718504028057    1.49905443707775
H         4.29092873121241    0.03001217646013    0.71156798572730
H         2.76527428666582    0.68487943458459    1.31881022294703
H         0.74197675706165    0.72388774573278   -0.70643560319945
H         1.42987387846642   -0.17551715843117   -2.07269938471063
H         0.98488203459632    2.87553042963248   -1.59250706624140
H         0.07064660112844    1.85844249472514   -2.69349662703203
H         3.07334160165177    3.79152940721893   -3.77493696091240
H         2.75409796956852    4.26000682855681   -1.52489495997948
H         4.47037314265222    3.76299866243090   -1.73902791096967
H         0.38253041783446    3.51433976881757    1.72156949486404
H         6.43877166425389    2.74685433496630    1.76216535213310
H         3.68827868639330    1.24105785149962   -4.35545328221287
H         5.94047951344216    3.06882107248711   -3.89500917432764
H         5.73976760073321    2.10657644081650   -5.17206573550418
H         5.38409651558599    1.81533012825964   -1.81693773741464
H         5.60719159661619    0.50918004848204   -3.10885314350761
H         3.60405368823738   -0.37998286683611   -2.40343587083545
