37
 energy: -49.854479416134 gnorm: 0.319158793862 xtb: 6.4.1 (79825abcba525fcdf90b791dcacef51065a7a4e7)
C         2.55957354501564   -1.37777423286974    0.43916369178199
C         2.86573614176168    0.10350986517638    0.58094931394429
C         2.84488634270125    0.92447184906035   -0.77531590817747
C         1.24756244101053    0.79154200230508   -1.45278483000379
C         1.01997214147989    1.89962900330394   -2.46797306024539
O         2.01782560869476    2.04780384945260   -3.40049359566923
C         3.20002453653200    2.76899735711551   -3.15805768340276
C         3.38395136228516    3.36804507654726   -1.77338801209991
C         3.22457722383191    2.36551741789805   -0.54059354165182
C         2.24236643701151    3.08031495701830    0.37303784116407
C         1.77981323212399    3.82744275612544    1.33630317500506
C         4.56141098247483    2.44087432256364    0.17885680376478
C         5.72259933056657    2.84546732590371    0.61242618100140
C         4.40608725784045    1.88946747455940   -3.52158793018203
N         5.60184138828335    2.79064337602300   -3.91820297967579
C         4.81384829147724    0.95388616390884   -2.40890658741384
N         3.71545712900187    0.24951289557656   -1.76493887911593
H         3.35549643461127   -1.94633027229913   -0.03743533327602
H         1.68142013647411   -1.52679252998379   -0.20194638951302
H         2.38015906083384   -1.86971974449600    1.40514291759173
H         3.89233060764514    0.21930712583453    0.94513073734510
H         2.19062199001302    0.64359855089040    1.25437095999466
H         0.50546644232366    0.78618745261182   -0.65846154896943
H         1.36549679998776   -0.22363417713803   -1.94009777221660
H         0.88544470321662    2.85652834863908   -1.92957184596272
H         0.10967434570634    1.76337264215694   -3.08254925376470
H         3.16662315658713    3.65353008179617   -3.79984940862998
H         2.72569630081818    4.27886435171969   -1.66676117068676
H         4.45816939690512    3.79065330039104   -1.74058236623971
H         0.99124260948243    4.34054575440481    1.83798431215499
H         6.57238521864571    2.82386200451588    1.25966009773469
H         4.11777793020833    1.26365127738797   -4.36957448002352
H         6.39023925624525    2.15794139528742   -4.05561717201591
H         5.48533802997969    3.06532384659534   -4.89659125499310
H         5.44149478959244    1.51997104458291   -1.69494288380797
H         5.50190314256607    0.21568044688214   -2.84350118901970
H         3.16365577364827   -0.22396807421530   -2.51117213673927
