37
 energy: -49.858026591336 gnorm: 0.310358745780 xtb: 6.4.1 (79825abcba525fcdf90b791dcacef51065a7a4e7)
C         2.74073792492342   -1.41779300582044    0.24877998476289
C         3.00701800277301    0.05344583405152    0.51820988978319
C         3.18602044190769    0.88856788824945   -0.81760369277344
C         1.74138403857924    0.67364451441196   -1.76360143947975
C         1.06760594787887    1.94877101324987   -2.24353558663114
O         1.72757343619204    2.56704774341490   -3.27767226784396
C         3.07060121261692    2.91382087861884   -3.04851220037004
C         3.41150475201222    3.45051037383535   -1.61726468096724
C         3.32726712155461    2.38228905995781   -0.43318222559282
C         2.18432489243868    2.78225652650121    0.48556958842757
C         1.30905601616001    3.52107280255777    1.10853863489242
C         4.58852451338810    2.52199935794357    0.40355119936585
C         5.41285889739586    2.79855517058166    1.37516119223790
C         4.10852642807328    1.86295293238580   -3.57602208533100
N         4.84853069099257    2.57051731427194   -4.73834552556178
C         5.01158960888962    1.21816867367089   -2.55212200662231
N         4.34408339220039    0.36692897415496   -1.57891818365579
H         1.95921594219936   -1.51968060240360   -0.50137876847501
H         2.40316299799884   -1.88582043733355    1.18225493902933
H         3.64306525497436   -1.89010497855742   -0.16358223238354
H         3.87078642361711    0.14986235624240    1.18494918032159
H         2.07253543721452    0.41085075733565    0.96539628854379
H         1.09208148819214    0.12463646682478   -1.08634153436429
H         1.96909133347774    0.02423223848481   -2.66269997454109
H         0.93063594557552    2.67360866901934   -1.41923015319927
H         0.05535201300867    1.76001327120089   -2.64927473534239
H         3.20446996738942    3.76557873731573   -3.72082025360095
H         2.66916747624641    4.25533077420527   -1.34256437912967
H         4.46702239001365    3.91430319880965   -1.68357482026301
H         0.49823464431551    3.87751688338536    1.70210292723761
H         6.35322287895332    2.70548113037520    1.87372655614380
H         3.56097488597211    1.07282931654102   -4.09538838208376
H         5.46376739509984    3.25271581139099   -4.29466245923891
H         5.50513150766931    1.85508044232184   -5.05973541415358
H         5.61455743636720    2.01082320354361   -2.07018323027736
H         5.77971802567782    0.64208636898391   -3.08630132117873
H         3.98139033178978   -0.47786418003014   -2.06913375861414
