37
 energy: -49.855444515070 gnorm: 0.329428581564 xtb: 6.4.1 (79825abcba525fcdf90b791dcacef51065a7a4e7)
C         2.40774886153074   -1.27770216309802    0.46545267531712
C         2.94571735745793    0.13813757282658    0.58389682704375
C         3.01047795558306    0.91752700343203   -0.79531556644162
C         1.37502413643853    0.91280230085175   -1.38974522067849
C         1.06492944046573    2.00312948301960   -2.40231087510412
O         1.94916271991057    2.08071760338001   -3.45082099295347
C         3.16778775389365    2.72502274888815   -3.17457208689658
C         3.41507128513728    3.29524833625764   -1.73618894805761
C         3.31080040117527    2.34745727637569   -0.45514886386404
C         2.25338424303008    2.99870812054460    0.42128662585492
C         1.36437666646125    3.76757256654525    0.98568762374930
C         4.66433725024867    2.46225348298197    0.22688616725459
C         5.79277595632627    2.69449134984059    0.83740060459769
C         4.31169987261948    1.85553798674818   -3.59734842468420
N         5.47963155603704    2.76778411890596   -4.04789478257378
C         4.90839152589928    0.98898999854211   -2.51443805209734
N         3.95873072700669    0.23795262324371   -1.70735287423693
H         3.03334101756133   -1.92385290626256   -0.14693569679106
H         1.38671681676484   -1.33770254745244    0.06761412061415
H         2.46261893029321   -1.72739303369365    1.46649373578016
H         3.96326642607408    0.10759044650271    0.98836447491960
H         2.32459631832710    0.72678497002354    1.26849489618344
H         0.70495198137409    1.04858531847589   -0.54461156470520
H         1.19802515230329   -0.09275962452535   -1.87911386074012
H         0.96296535547631    2.97386949502838   -1.88183319949837
H         0.09855472084204    1.62662856889539   -2.78867693675516
H         3.17692669516961    3.61719530205974   -3.80651751722648
H         2.67177197919940    4.13400759221044   -1.60109707608225
H         4.48209331192561    3.73601559098041   -1.76458834921078
H         0.58873110322029    4.32579873687868    1.45850865656152
H         6.73327099120177    2.45613920307613    1.28480639282793
H         4.02623616050920    1.22147534104707   -4.44015587610611
H         6.27575731370925    2.15797778865777   -4.23520648123577
H         5.13982130965703    3.34229432885311   -4.82296447351585
H         5.47030316570108    1.63124646753767   -1.81023756506354
H         5.61552752952809    0.24626973140502   -2.90885522173091
H         3.55521242576110   -0.53593606078414   -2.27638918645959
