37
 energy: -49.853483585891 gnorm: 0.319342742703 xtb: 6.4.1 (79825abcba525fcdf90b791dcacef51065a7a4e7)
C         2.86614369396592   -1.45544195382379    0.23834967424684
C         3.05827473067899    0.03825025019179    0.43837602604620
C         3.19603324247533    0.92060583505636   -0.87171552013151
C         1.69545585050684    0.79451281365527   -1.74375116754007
C         1.05205934841504    2.04356466364383   -2.32355432804623
O         1.77866539584462    2.78485964603309   -3.22343614043890
C         3.16441611767132    2.97625637199177   -3.08360845355878
C         3.53599587064584    3.36085608710267   -1.63021350540785
C         3.33622175077764    2.35677317314185   -0.40459046967336
C         2.13069771251532    2.91717980746796    0.33233016953394
C         1.34301606785353    3.27331286198966    1.30842566499303
C         4.50706582314401    2.53895840404297    0.54743091359165
C         5.19699382066161    2.85003938700702    1.60915791706918
C         4.02934367797895    1.79600962795616   -3.62292764671199
N         4.72721763945895    2.42381087815024   -4.85503436585102
C         5.00804335933899    1.19854150708291   -2.64067513444838
N         4.38513467529306    0.40779235972263   -1.58996118048355
H         2.42020941069434   -1.65252963699964   -0.73437583013965
H         2.17532221781393   -1.79001788844852    1.02270076279035
H         3.84293564625036   -1.95409005647798    0.30575412375803
H         4.01463762400949    0.16961984727485    0.95610699587052
H         2.27279490609128    0.45651503683007    1.07794434363838
H         1.01958028194420    0.27668789986690   -1.06793004383818
H         1.91215077648965    0.02912146321040   -2.54947102034459
H         0.68959560657483    2.70319606502218   -1.51291488539426
H         0.15048579366765    1.66834269714987   -2.84440495101889
H         3.27901515122847    3.83389800599580   -3.75198581770087
H         2.95689791726583    4.30806621400830   -1.42600944047970
H         4.65512625158181    3.64297470622890   -1.59053246260993
H         0.54595312616827    3.75381857211352    1.82862484986750
H         6.02362625025845    2.99019363588576    2.27138916824183
H         3.35398050691343    1.03107567056216   -4.01358094268567
H         5.36510645034747    3.10955074917887   -4.45052929901116
H         5.31039408852478    1.69648919081341   -5.27595526465557
H         5.64112482235941    1.93792827608449   -2.11469846612644
H         5.63943742864895    0.51263796389097   -3.22215383999970
H         4.04380301081815   -0.53608653569249   -1.86945780791001
