37
 energy: -49.850106972073 gnorm: 0.319399115290 xtb: 6.4.1 (79825abcba525fcdf90b791dcacef51065a7a4e7)
C         2.57437599796542   -1.35566088356497    0.33736199565226
C         2.95162528285008    0.09302082218529    0.59629358830140
C         3.15039214931126    0.96781421625900   -0.71103073867310
C         1.75556770093799    0.84220251225945   -1.74387370277745
C         1.21345904143271    2.12707540666218   -2.34842406051712
O         1.92559804324692    2.73006554590348   -3.35665161907371
C         3.29852870616161    2.90640844366185   -3.11077740491333
C         3.57081202985011    3.38203219072341   -1.67572256577418
C         3.29734430525502    2.43556382072879   -0.41887849029654
C         2.18795915919316    2.87975642141550    0.52045819646650
C         1.32270642052538    3.70785108201052    1.03585367312923
C         4.46902639419742    2.46624475121580    0.54891891442944
C         5.29763591495365    2.84271027537988    1.48257635095842
C         4.08656812618107    1.70263923472258   -3.63282079483510
N         5.00085782524646    2.16378402628918   -4.79500377124345
C         4.95210101008676    1.10877660110285   -2.54754607432800
N         4.29688480027379    0.40143569836880   -1.45774800969050
H         3.41763879998488   -1.99285771691962    0.07893620541396
H         1.77094893114566   -1.45647395169261   -0.40339685286865
H         2.14331033543033   -1.75460325511936    1.26598634755763
H         3.90839793081782    0.13182477708306    1.12828387500306
H         2.16844934158703    0.62600752613661    1.14723118732155
H         0.94419521794663    0.39499751665758   -1.17522002714908
H         2.06154609104722    0.18845133027931   -2.61619916302197
H         0.95711615281464    2.83345412690818   -1.53666838106999
H         0.24104044992401    1.80422955950781   -2.76685495363607
H         3.59818024985175    3.70694313651134   -3.79251310859864
H         2.97230697464583    4.33230189609856   -1.56152996529483
H         4.70000936716314    3.60636109859412   -1.58512331342684
H         0.59621733264453    3.80246524915293    1.81049169331419
H         6.16990299908448    2.99541267832238    2.08036121875723
H         3.39312506458772    0.93564929766334   -3.98596740244271
H         5.29090137893296    1.29212041404368   -5.23867362477377
H         4.43572003122541    2.65212149060612   -5.49386842579896
H         5.66359549964253    1.86909828759674   -2.17361705293811
H         5.65610008824246    0.39106066735257   -2.99083916337021
H         3.96154363094381   -0.51159745451770   -1.83117779037299
