37
 energy: -49.852281779886 gnorm: 0.321302484583 xtb: 6.4.1 (79825abcba525fcdf90b791dcacef51065a7a4e7)
C         2.67444607142441   -1.36383907944562    0.31798583679172
C         3.02289446259867    0.10014267948424    0.52627027077256
C         2.96680955490075    0.91668286117895   -0.83166391772631
C         1.41634085576405    0.82486843295857   -1.61632630010498
C         1.07670423001287    2.10032401176653   -2.37006452892758
O         1.90385992388550    2.38235084036258   -3.43003443505079
C         3.19305210210657    2.85998142860559   -3.13619417103454
C         3.37987977225342    3.37000495319802   -1.73066531738031
C         3.33511141409927    2.33960690785272   -0.51143619712886
C         2.23279020939649    2.77031241278158    0.44238586306704
C         1.60234892843401    3.58172671377695    1.24499792910645
C         4.54162721222973    2.34660069222678    0.41305426970426
C         5.40684032993352    2.89641117963353    1.21875331579391
C         4.26024282614861    1.82444115232075   -3.61507744914462
N         5.35201175608679    2.59049880187227   -4.40276122100426
C         4.88201676412077    1.10620465337071   -2.44154657123165
N         3.99015282098428    0.25274303995768   -1.67116923677762
H         3.31690686723463   -1.83710921052083   -0.42171366683230
H         1.63912530635066   -1.62875989503892    0.06836638055972
H         2.93030246426331   -1.80171830958779    1.29272431159729
H         4.01579119954175    0.24441492853831    0.96590068359510
H         2.29916510887720    0.52522627228326    1.23089171614023
H         0.67284152015298    0.63452061757355   -0.84648146886960
H         1.37161063924436   -0.04408704597855   -2.34081279073879
H         1.02659289918484    2.90423945731923   -1.61188337177817
H         0.07703751893761    1.97478065766185   -2.82812249848197
H         3.29638770443097    3.76841148090068   -3.73576652292446
H         2.55057839644340    4.12442512525426   -1.59886933006838
H         4.41633178025849    3.87873261468551   -1.75478362169317
H         0.87277820696296    3.96787592515426    1.91984427491250
H         6.16092204141984    3.13670873379478    1.93648057094239
H         3.76376373016548    1.08444465850754   -4.24734564073442
H         6.23884940770759    2.08626018684264   -4.40805779073753
H         5.08588802904679    2.75288364164329   -5.37696619758212
H         5.42226120067854    1.77163617266348   -1.74192293627038
H         5.65703913657421    0.45578627389589   -2.86995744908566
H         3.57883089512135   -0.43438208414460   -2.33765732844993
