37
 energy: -49.855910028588 gnorm: 0.326830622489 xtb: 6.4.1 (79825abcba525fcdf90b791dcacef51065a7a4e7)
C         2.48685009627365   -1.27967551780738    0.52243769737256
C         2.88433948764957    0.18090429296877    0.65185978780379
C         3.01055794863039    0.94806923482728   -0.72994898979174
C         1.40330925150256    0.93504556086834   -1.39677740886715
C         1.13763987476386    2.11309172800744   -2.31975536057386
O         1.93490410016401    2.19343550257296   -3.43563013347950
C         3.19663070968336    2.78675993059063   -3.25534802681306
C         3.49954359175016    3.34577197526624   -1.84027014082537
C         3.40402514233671    2.40390402486046   -0.55418888411678
C         2.39978466097076    2.98221536444206    0.42940295803588
C         1.35804646708844    3.62056180807895    0.88473897281046
C         4.67592944228192    2.59317162186516    0.25627349794584
C         5.63598057567218    2.60726540504655    1.13839560800244
C         4.25593258392333    1.76148943448570   -3.65968624288411
N         5.42371658034305    2.49968301804949   -4.36011483611683
C         4.84841445722967    1.00184224127753   -2.49712760284010
N         3.93623097339062    0.24845647634218   -1.64999689438375
H         3.10821929809178   -1.69135415156155   -0.27022671105244
H         1.40428214509834   -1.38391444238131    0.37559466612259
H         2.67637564781585   -1.78864962594242    1.47760324888751
H         3.89354644660077    0.21526486714588    1.07642306581306
H         2.17225585292427    0.69145967338629    1.31007078767111
H         0.70883897662872    0.97697070211436   -0.56153017774993
H         1.28504114728001    0.00705931313038   -2.03460126501146
H         1.08296115636101    3.05520010919137   -1.74263155053438
H         0.11335301418836    1.95369204182749   -2.70749230476229
H         3.20675167478449    3.64372056690919   -3.93426366638300
H         2.96503573356713    4.30810850323140   -1.59032910017434
H         4.58091217429610    3.74974483635416   -1.87292325882195
H         0.60076904601773    3.97344955756525    1.54716136233093
H         6.40335244419663    2.81922213769044    1.85094693259095
H         3.80975748947284    1.05629582265911   -4.36500824358429
H         6.23860080665498    1.89171437622347   -4.44439700000408
H         5.14601929445684    2.69165185067965   -5.32567073579109
H         5.35542220767390    1.67152072171389   -1.77698160193918
H         5.52545022719912    0.25793353971023   -2.93923848982957
H         3.31142571896093   -0.42787119893636   -2.13757489734351
