37
 energy: -49.855159364468 gnorm: 0.318846323867 xtb: 6.4.1 (79825abcba525fcdf90b791dcacef51065a7a4e7)
C         2.70682351685232   -1.32491658892433    0.47360708840217
C         2.94876171582202    0.17123191944466    0.57871097203339
C         2.94776741029507    0.93054066916463   -0.81316469770431
C         1.33768504261027    0.84724350191549   -1.46797343507763
C         1.06230656063780    2.02396656390478   -2.38979273206684
O         1.96236675164621    2.18603597464581   -3.41492054596956
C         3.16918559639810    2.85818581954614   -3.15359237289616
C         3.41966700627987    3.35316852525090   -1.71598889266178
C         3.34489360205306    2.35905531902837   -0.46843452881274
C         2.20485466868382    2.85792773160771    0.40439611487273
C         1.20370140775051    3.38154855411806    1.05520248084041
C         4.61931307697934    2.46030182563940    0.35376749763609
C         5.88370095286984    2.56523842870300    0.65434673571667
C         4.29559475871270    1.94364920833127   -3.58751691046442
N         5.45262449042707    2.86930503216267   -4.03884045197782
C         4.81999142829634    1.05543483518514   -2.48491789888551
N         3.89485109861672    0.23695673719590   -1.71582217664276
H         3.27769293040893   -1.77321999916773   -0.33696555604113
H         1.65217889332592   -1.56439446050307    0.28717461998187
H         3.05999468972225   -1.79877545071399    1.39991357658394
H         3.94375361748311    0.39559816329166    0.97819090448965
H         2.20840225101415    0.65835504383409    1.22334307202157
H         0.69250362445951    0.84611878307630   -0.59308813399118
H         1.19168343873345   -0.13288004788274   -2.01570188136265
H         0.83368220493812    2.87473233868892   -1.72079470754424
H         0.13554222918845    1.77933016080255   -2.94312145435998
H         3.14496605791152    3.75978145063369   -3.77161271540689
H         2.71980985439173    4.18969259731232   -1.42497650559442
H         4.43517362236346    3.88974926010214   -1.83617928708439
H         0.32133449272293    3.85430098669066    1.42226650800785
H         6.69489476281459    2.61785819180930    1.34767955225615
H         3.94070691181614    1.34195242784970   -4.42767461606091
H         6.33966845395339    2.37699183207258   -3.93138639348611
H         5.43016333331704    3.01307389068613   -5.05130873416627
H         5.38244443124202    1.64145300007666   -1.73367511604070
H         5.51662559207305    0.37936904077161   -2.99957847641919
H         3.29981266534119   -0.34738685509946   -2.34032587435205
