37
 energy: -49.850813396616 gnorm: 0.320175810776 xtb: 6.4.1 (79825abcba525fcdf90b791dcacef51065a7a4e7)
C         2.54101305176185   -1.28974214469326    0.53064459524943
C         2.70455644418697    0.21823452730156    0.61609161279638
C         2.97397631834910    0.99234496612305   -0.74112414216330
C         1.49272774937439    0.93379081575803   -1.65247051924096
C         1.10314633715415    2.16778901053018   -2.44980110765630
O         1.91038086637942    2.49524450077575   -3.51206623114389
C         3.26607597086849    2.75796560682081   -3.24832780755990
C         3.57026111844705    3.39768450058294   -1.85771850882228
C         3.33375319614932    2.50675681240311   -0.55366487231912
C         2.22731040794868    3.09078963824271    0.30951870083215
C         1.71498669832310    3.66190572728830    1.36374182984733
C         4.57138562887293    2.72417500484239    0.30155869350217
C         5.66374785126252    2.56907990945241    0.99634393443082
C         4.14695313886446    1.59683618586268   -3.56173208268534
N         5.24896842884692    2.17128070860352   -4.48629967579789
C         4.87194657576946    1.02640366581228   -2.36647793551511
N         4.08992215037404    0.27354732441131   -1.39748650964082
H         3.51792456744173   -1.70937489248493    0.29945615625294
H         1.80312212023108   -1.56576336493790   -0.23336538979331
H         2.17742324738017   -1.72272081160910    1.47279518637151
H         3.58068871083959    0.38492775246136    1.25212536351035
H         1.74973565250743    0.56742412021842    1.02518268284606
H         0.70233229901640    0.78843984062879   -0.92046454712450
H         1.49944512239727    0.06489868158999   -2.37838127675393
H         0.97302867908953    3.02667450454269   -1.76495443914365
H         0.10914477862322    1.88878849798309   -2.84858850230540
H         3.48204433318344    3.59619184899513   -3.91626855731734
H         2.98417380057741    4.33956267587377   -1.64884551510068
H         4.70266122108761    3.62162427466036   -1.82396502936215
H         0.87464991766342    4.00131376953397    1.92538100267921
H         6.54582276092207    2.60546127603267    1.59812037661158
H         3.56488210079182    0.86334906199107   -4.12479452634104
H         5.88614124503697    1.43052630035926   -4.77965843883798
H         4.80172652508768    2.71583954832265   -5.22771478239067
H         5.41850796411301    1.82548074543837   -1.83086346751936
H         5.69749870904036    0.34306763795144   -2.60887260280161
H         3.73471278504220   -0.60132536508541   -1.83789214445756
