37
 energy: -49.857611841920 gnorm: 0.325853683094 xtb: 6.4.1 (79825abcba525fcdf90b791dcacef51065a7a4e7)
C         2.54818442601448   -1.32788354596376    0.43166251792395
C         2.82457849672055    0.15482970824771    0.61389588760937
C         3.05332695880320    0.93154736801689   -0.74928145380159
C         1.52478462823726    0.83461528559565   -1.57526005302875
C         1.08033589064581    2.09860817925116   -2.29292889982934
O         1.86246357409415    2.47407079255677   -3.35808897650759
C         3.21063441304682    2.82578862444488   -3.17042036482206
C         3.59372382340024    3.33153271542039   -1.75387889824690
C         3.37052785784759    2.37573558345591   -0.49416487169643
C         2.21723675888786    2.94592273102950    0.31528066495018
C         1.41859892335074    3.68662880272762    1.03191701125897
C         4.62354146813364    2.48881124045872    0.35881976603907
C         5.59975933799660    2.96968547241145    1.07700840111465
C         4.16603800344230    1.72897251440518   -3.61824843601959
N         5.30663099320271    2.42593125474777   -4.40090135357254
C         4.84958707420754    0.94504613952040   -2.52377992268851
N         4.08278254567252    0.20846195609515   -1.53042509575590
H         3.48488296188507   -1.84077674431516    0.22325842278257
H         1.81815262889415   -1.50592477481206   -0.36817302405406
H         2.17880757076722   -1.70026058585504    1.39717372306821
H         3.64841414053620    0.26694851832787    1.32709818470356
H         2.01359810698741    0.67089361729097    1.14016622596133
H         0.78828155161933    0.52744979188341   -0.83708853165308
H         1.63131920063199    0.00662434293908   -2.34014336166482
H         0.95631264517197    2.91374145447290   -1.55549698122553
H         0.09156869508477    1.79492588670876   -2.68666519337459
H         3.41518954643291    3.65835288593858   -3.84895139556779
H         2.98563663655830    4.25726966781769   -1.53592974234577
H         4.72783157140692    3.54594302236444   -1.79190711113111
H         0.65300794863632    4.10278066432836    1.64631943937139
H         6.50239372010298    3.14079838556878    1.62243131697579
H         3.61172526123112    1.01391775191368   -4.23085225599475
H         5.94459272890997    1.75461454339577   -4.82880829641091
H         4.96161346658949    3.15096172850026   -5.03458876007208
H         5.53861966568552    1.68965250528103   -2.08226906571453
H         5.49869072561168    0.18094819848290   -2.97328900247920
H         3.67299309662183   -0.65008121686302   -1.95528891745706
