37
 energy: -49.851529520910 gnorm: 0.313051538804 xtb: 6.4.1 (79825abcba525fcdf90b791dcacef51065a7a4e7)
C         2.46990029464617   -1.41629838573075    0.39936182103776
C         2.99441204692734    0.00491882550744    0.51368739851163
C         3.05008938095135    0.86602828256388   -0.81644762596150
C         1.59446601194009    0.66200812993446   -1.74790589984617
C         1.03878086446766    1.88043933640922   -2.46686396606140
O         1.80968003996873    2.44505056870926   -3.45387485435056
C         3.07800132754973    2.97486162446948   -3.15866152691447
C         3.32705344631564    3.42758517201448   -1.69767333075132
C         3.27892044797869    2.38018168137221   -0.49315135442042
C         2.24524860898548    2.90746950797691    0.48862555900361
C         1.64583689275778    3.33516105056500    1.56464652704747
C         4.63359256936569    2.55106625053296    0.17473634273129
C         5.50693421936166    2.94523987483851    1.05900881912852
C         4.19168733266074    1.91750344540829   -3.56532246661151
N         5.22310731714451    2.57003709149961   -4.51906357387705
C         4.91998809639588    1.21832648645809   -2.44266009634518
N         4.16842752383277    0.29757542800009   -1.60321179509476
H         3.00297590852291   -1.96940064069281   -0.37122505420997
H         1.40660802089150   -1.35588058552929    0.13451992828792
H         2.65914408119676   -1.91302394520840    1.36100952996065
H         4.04104050923203    0.05687364077793    0.83275302059663
H         2.34173849083662    0.61045566246822    1.15268191178509
H         0.81773231831035    0.34440822948137   -1.05689237632331
H         1.73621214838906   -0.10276155559340   -2.57070627227227
H         0.74611347538392    2.63130558521709   -1.70912025474038
H         0.08152430082303    1.67708033200576   -2.98379409410175
H         3.15872286104175    3.87501581615474   -3.77398004362639
H         2.57370032004708    4.23334260515245   -1.45793431975868
H         4.32961136897346    3.99931931473148   -1.65747392743026
H         0.98124523982338    3.69815771396244    2.31521538495180
H         6.49295827364241    3.19222905291919    1.38804917573540
H         3.70250736265022    1.12664077565077   -4.13898487979476
H         5.72756800497840    3.21025088320301   -3.90553984146133
H         5.93391384867730    1.91416678473482   -4.85201135675949
H         5.45470856188546    1.95745786901802   -1.81664475153707
H         5.69371305933293    0.64549900361813   -2.97224293516830
H         3.76371580548404   -0.54599005057255   -2.06162072577547
