37
 energy: -49.852075514845 gnorm: 0.327827536549 xtb: 6.4.1 (79825abcba525fcdf90b791dcacef51065a7a4e7)
C         2.43087367503993   -1.23845504912406    0.57465776179946
C         2.93196585858193    0.19571060528225    0.58546408802994
C         2.93360178393204    0.92517514481488   -0.82228143409566
C         1.33849229798186    0.75875431433311   -1.49756505302983
C         1.04171635904594    1.88887641015319   -2.46968098212668
O         1.97772415471622    2.05592152163766   -3.46126920977722
C         3.13112568571421    2.81987791671420   -3.21121904130702
C         3.31234438876271    3.36710557790315   -1.81007255258785
C         3.26720575589294    2.37562771218691   -0.55900173811690
C         2.41842731741654    2.97407447442739    0.55087776332409
C         1.42643679708813    3.50859399553703    1.20683450101917
C         4.60039774626844    2.36073336995007    0.17092237552905
C         5.78877862051774    2.50145773151517    0.68859397955541
C         4.37311634476034    1.91896222597310   -3.61865408855494
N         5.50484730441330    2.90825770722303   -3.99245741793537
C         4.89877453778051    1.05421207307358   -2.49814890916445
N         3.95683281343747    0.29627041551752   -1.68847645200825
H         3.01224235732918   -1.85020912153276   -0.11211968175782
H         1.39524695294420   -1.25626306490406    0.21197034102260
H         2.39348727640733   -1.66490690365485    1.58661471799397
H         3.95531178804582    0.22941599235420    0.97477163689786
H         2.35340475733666    0.81780060367092    1.27773766524361
H         0.67664238991778    0.83212547109202   -0.63834680962366
H         1.29908358675229   -0.26549855596266   -1.97852045959638
H         0.89432950715304    2.89023536745260   -2.02337703771855
H         0.09366127300669    1.66677102533114   -2.99577272550733
H         3.10971405801817    3.59845187818491   -3.97853549526054
H         2.58822124320595    4.21470582101556   -1.63264578714484
H         4.32213999990451    3.92245120643025   -1.88438511223311
H         0.90926801923920    3.86864453610941    2.06689400381812
H         6.65605119774710    2.85444837817271    1.20313304035320
H         4.06130486497591    1.28055463330722   -4.44874969535810
H         6.35177565756470    2.34097426076790   -4.03329258526993
H         5.36928076776110    3.47217546138056   -4.83500385069921
H         5.44192220555691    1.69745578755437   -1.78025997377534
H         5.54221378627906    0.22854444321148   -2.83206285762449
H         3.54755706607726   -0.48403299528224   -2.24449172965711
