37
 energy: -49.853070506622 gnorm: 0.320640449066 xtb: 6.4.1 (79825abcba525fcdf90b791dcacef51065a7a4e7)
C         2.54914767771337   -1.23596534062374    0.48918411853141
C         2.93776755928381    0.22593133240144    0.63015923198549
C         2.88756783868884    0.97151586107979   -0.76821566220243
C         1.22158778692836    0.97248582264883   -1.27079665830648
C         1.05356921986266    1.95111253989215   -2.42158803760385
O         2.00804172618802    1.98025473355238   -3.40920883699273
C         3.18477684882553    2.72611094346571   -3.22084079996932
C         3.45526422243804    3.35020868459226   -1.86145753877852
C         3.36016341008885    2.44588619335536   -0.54867397955297
C         2.33468441543688    3.11874251702928    0.34913058068526
C         1.44834952104565    3.86532029303691    0.94668188052103
C         4.71579493816255    2.50085484687702    0.13663872931777
C         5.81047518041948    2.49661953769891    0.84494197610002
C         4.36373654731380    1.77382868268527   -3.64903870213183
N         5.59828122191584    2.68929880210136   -3.84155714346648
C         4.76448645749599    0.84377827933542   -2.52919631287670
N         3.73145267877473    0.21418482773874   -1.72064665196026
H         3.09049842468560   -1.64448209395907   -0.36166797078155
H         1.50889596163676   -1.38600742322696    0.17335863058453
H         2.82507626387729   -1.83453996237985    1.36832440643519
H         3.90292152904181    0.38161168106410    1.12429965320101
H         2.17185271873200    0.71624623199077    1.24166342334174
H         0.66535001242118    1.23950198747891   -0.37581815392568
H         1.03575268577385   -0.09758726498602   -1.59075602193058
H         0.88806468062590    2.97029424713608   -2.02471683495983
H         0.13700120441570    1.60827447231004   -2.93857633839753
H         3.19183517371917    3.53174727490073   -3.95996913342589
H         2.63636008287644    4.10245209473196   -1.66706971389348
H         4.44911252271092    3.92834438711843   -1.96936010907948
H         0.72457049860353    4.06084268049926    1.70478292623271
H         6.61336181489080    2.67718275518665    1.52632625571059
H         4.10602875098880    1.25023399636564   -4.57277279046913
H         6.41455731420478    2.14128645528487   -4.11384644511313
H         5.39773237174617    3.32696828592107   -4.61578178709263
H         5.52376663099107    1.34418980039509   -1.89894373128733
H         5.35243317553950    0.05199588174885   -3.01359172799734
H         3.09558967495512   -0.40666513092122   -2.26448174514670
