37
 energy: -49.855144390067 gnorm: 0.327539908568 xtb: 6.4.1 (79825abcba525fcdf90b791dcacef51065a7a4e7)
C         2.61525201370170   -1.30207364117083    0.48346336481073
C         2.90480569017926    0.17912061684484    0.65742748756793
C         2.99633722428261    0.94591765792267   -0.72731542072581
C         1.53119361596028    0.84272722904754   -1.66047353897728
C         1.08689219237230    2.08682009701684   -2.41219853527460
O         1.88807398206520    2.48446900014766   -3.45490892931761
C         3.21052758428764    2.83647960281479   -3.13289253585666
C         3.40798458541827    3.36218557360761   -1.73140017398796
C         3.30097694294364    2.37781250856851   -0.47848236487133
C         2.20258436129212    2.93027721124999    0.41522470416646
C         1.42673652567087    3.78017752745111    1.02822150898941
C         4.59305181958284    2.43987767058710    0.31970454896140
C         5.68423115671640    2.56737777730071    1.02192078394121
C         4.22176708660247    1.74681078739837   -3.52438913122601
N         5.24903259096687    2.42900415105636   -4.46171897792257
C         4.89000951366542    1.14274161085908   -2.31269869687859
N         4.06278007345068    0.26605871169914   -1.49758042079161
H         3.33653343148413   -1.77292536125114   -0.18132804679362
H         1.60138177010746   -1.51704771860181    0.12258211928838
H         2.65267701245983   -1.86010301554305    1.42925319087569
H         3.89955727566821    0.27372254550477    1.10626272507986
H         2.13334991388499    0.69516080859735    1.24011962367837
H         0.76526685138056    0.66194339105655   -0.91056820323178
H         1.74553650417814   -0.02729981097499   -2.35262610015995
H         0.89257290843681    2.92917439331992   -1.72204702166025
H         0.13167765705956    1.89213583232683   -2.93619758037763
H         3.42457575255474    3.65791038219474   -3.82198271003167
H         2.62227333106870    4.16017814041099   -1.58953246045107
H         4.45233890518354    3.85433268443556   -1.75848479812237
H         0.63225571955384    4.28756733039309    1.52637621044993
H         6.71313428093851    2.53983175010250    1.30847645061095
H         3.70583980363643    0.97414330443386   -4.09941379960897
H         6.04822332072259    1.82092574857185   -4.64144234535483
H         4.84144044230684    2.44446686996786   -5.39974645906151
H         5.41191538720770    1.93513957168237   -1.74361511802590
H         5.67088179514411    0.44057640547939   -2.63587377474488
H         3.63704116766555   -0.50418074520329   -2.05526366646695
