37
 energy: -49.854709689618 gnorm: 0.333810116459 xtb: 6.4.1 (79825abcba525fcdf90b791dcacef51065a7a4e7)
C         2.45493917041305   -1.20279587903264    0.57525055168083
C         2.83871500576098    0.26715294291555    0.57805169919354
C         3.06135067924847    0.88432578162476   -0.86534696014179
C         1.54629207571020    0.75399971776520   -1.71133199301541
C         1.12793420093370    2.04416691428153   -2.39741258782363
O         1.90581796459977    2.48240122986223   -3.44149563569973
C         3.22481149807509    2.88749560102318   -3.17196982780295
C         3.48325880035951    3.41021597779997   -1.72524531432869
C         3.35133719914280    2.32707363437979   -0.55920783351067
C         2.32204480452664    2.91750068322839    0.39071264250242
C         1.46797898927192    3.47123273958906    1.20556720047107
C         4.62389394635285    2.52975322220163    0.24697596851551
C         5.56750988460278    2.77066078499950    1.11391818578359
C         4.18075703563810    1.79487766236191   -3.56516646680492
N         5.29805148925166    2.34673111574936   -4.48514489767389
C         4.90782006312447    1.08618287982078   -2.44768166636559
N         4.17357727304561    0.19683157998172   -1.56041561439579
H         3.28437593609618   -1.90121567576858    0.48502701770566
H         1.71939130484615   -1.45788251653747   -0.19823645076357
H         1.97781142700011   -1.35740178125730    1.55288133050367
H         3.79357033705172    0.38574463427219    1.10161699513668
H         2.09170751888685    0.82154660399903    1.15736085910503
H         0.78012530511095    0.56160833285301   -0.96456653326798
H         1.67580463884782   -0.06455481314102   -2.48279817363047
H         0.99637683702658    2.82289508452440   -1.62287727351128
H         0.15940776721548    1.78169080242586   -2.86429009688300
H         3.37806084510717    3.72748364913564   -3.85486449643622
H         2.76992108143391    4.26099200977600   -1.52130853844711
H         4.53407674960882    3.88772070497995   -1.68797356457882
H         0.93164377735951    3.88156684257116    2.03065672457273
H         6.35326174165561    2.98166648139583    1.80643910267346
H         3.57645961568317    1.04614505231909   -4.08292459243467
H         5.82543717425286    1.56590876327756   -4.87622858184837
H         4.82006691176128    2.79518741219870   -5.27043701182544
H         5.34835332599439    1.85833214574626   -1.78900697864004
H         5.66250027029647    0.44559809749469   -2.92449247588217
H         3.75041248242843   -0.63539038586256   -2.02287771970494
