37
 energy: -49.853026762330 gnorm: 0.330795939738 xtb: 6.4.1 (79825abcba525fcdf90b791dcacef51065a7a4e7)
C         2.55073713943564   -1.22624196000280    0.57971275713426
C         2.79835552941130    0.27124857496228    0.64489333754828
C         3.09405046012093    0.91315546544288   -0.77439828072200
C         1.68815045697493    0.72335960808589   -1.78211889908011
C         1.13964105318337    1.98580333225850   -2.42681616618323
O         1.87248253116574    2.61088552091338   -3.40634539064741
C         3.21313434592842    2.88773930778996   -3.08619816779627
C         3.45675853947656    3.44318295379191   -1.65040079399634
C         3.32321379672916    2.37049973748582   -0.47491768389773
C         2.25838211704873    2.98465903804233    0.41913918928966
C         1.30149971888072    3.73584833831505    0.88831536413779
C         4.59512820121065    2.44776285498985    0.35374159471132
C         5.75674321631060    2.40967689590852    0.94470373099547
C         4.10196002402778    1.74746539916031   -3.50526578773102
N         5.12368880907994    2.41388880393653   -4.45983353216955
C         4.95167430611711    1.05679383366645   -2.46574683773755
N         4.26728170173123    0.29420586985847   -1.43261295637725
H         3.50779543107004   -1.74343969607526    0.55869431129029
H         1.95177334397118   -1.54810943031332   -0.28169637993221
H         1.94339593875198   -1.54329955370378    1.43873950670423
H         3.61692078355688    0.42111490109490    1.35723056181526
H         1.84083373109363    0.72935158077796    0.91740987194441
H         0.90481435268864    0.33008863374247   -1.13915147711496
H         1.87727050748291   -0.05534606833136   -2.58200399578968
H         0.88955336054868    2.68888726557745   -1.61026305402583
H         0.16716845322821    1.68257226346502   -2.85955134135879
H         3.42414435184247    3.74900319030745   -3.72581501706195
H         2.82985345114870    4.36596868643359   -1.47801382641638
H         4.53728345664248    3.85051042803799   -1.66338315813997
H         0.71731898796198    4.36363503282247    1.52189172840686
H         6.64832134647741    2.50305308444955    1.52598159440332
H         3.53200476395636    1.01037043587162   -4.07595956409026
H         5.60785987897880    1.63150147689771   -4.90053082108313
H         4.56244647455562    2.93423357098187   -5.13844562758182
H         5.48562879547467    1.87948279984795   -1.95368057537816
H         5.62397273552034    0.30469305666768   -2.90117636083538
H         3.96363408289955   -0.66350571882146   -1.70851090090429
