37
 energy: -49.853349070928 gnorm: 0.326392010425 xtb: 6.4.1 (79825abcba525fcdf90b791dcacef51065a7a4e7)
C         2.88375188885904   -1.47535986506736    0.20234805987760
C         2.90121898533158    0.02478063296201    0.44175287188767
C         3.04869275439393    0.91010976789729   -0.86527140328747
C         1.51684390407085    0.88937361062434   -1.69055150252224
C         1.09437832021824    2.17720950502645   -2.37849250888499
O         1.90708078489608    2.56686554290392   -3.41528793323033
C         3.22847439242786    2.92814817133614   -3.09924466347577
C         3.44398472166153    3.44667472725584   -1.62960249621746
C         3.26698733716746    2.36744361104846   -0.46591174989949
C         2.14526721920452    2.75680443847121    0.48305503591760
C         1.38394414669840    3.41308701017174    1.31354640820449
C         4.47697428910026    2.45038210720880    0.45031136876624
C         5.40910312527492    2.98938343543043    1.18560022424894
C         4.10153332049700    1.81419973418370   -3.53215515888293
N         5.00742820553925    2.34293703945887   -4.67190985292489
C         4.94074550297429    1.16848144934250   -2.45585964681610
N         4.19860844114867    0.29104289909194   -1.56331641079340
H         2.29032340130509   -1.75992067466090   -0.66411810946132
H         2.47560254043574   -1.94496259793620    1.10637758416464
H         3.91991677920294   -1.80742030996291    0.04933175625918
H         3.74979223978835    0.23474286721975    1.10188361957619
H         2.03580572024712    0.37766107746511    1.01403505064449
H         0.84581257499842    0.48955523194184   -0.93454433550006
H         1.62652445603417    0.11293181954344   -2.50729712597064
H         0.93897302481035    3.03920623486398   -1.70288856570367
H         0.11585198961329    1.95101552040918   -2.84350247880160
H         3.38775986066327    3.79045535191933   -3.75228744745533
H         2.71004606457954    4.27608601251282   -1.41126392629503
H         4.53692751260323    3.81027171490486   -1.54658686906957
H         0.61533381556426    3.69055835153840    1.99841871362521
H         6.23280553641763    3.22123976683420    1.82534360761695
H         3.52964153814934    0.98647257486714   -3.95836744022310
H         5.52481814848614    3.10701851424492   -4.23687789810580
H         5.60001264518417    1.60778318265052   -5.06517630127122
H         5.48943772075202    1.95349690610467   -1.90194271121761
H         5.66175882218409    0.52335326162243   -2.97661778780902
H         4.01766751522140   -0.66276920253318   -1.94151727715548
