37
 energy: -49.860749416501 gnorm: 0.323305145677 xtb: 6.4.1 (79825abcba525fcdf90b791dcacef51065a7a4e7)
C         2.61130069903152   -1.25398323887252    0.43781670415425
C         2.95141107195822    0.21266634635283    0.64105352637227
C         2.96496581102372    0.96363993260806   -0.75527150303610
C         1.34899981430860    0.97344018122880   -1.40074496011957
C         1.04985105705992    2.05029616374628   -2.43086752714241
O         1.99617043642281    2.11244931719087   -3.42478829554941
C         3.24457452966198    2.72592428238302   -3.22076565188391
C         3.47333543931152    3.35157812458677   -1.81985967675698
C         3.35015868424588    2.42072051028742   -0.52812610452086
C         2.30999596441199    3.09562593577135    0.35105532979631
C         1.54011572059447    3.78620463356356    1.14504589087128
C         4.65435960339319    2.61563676609973    0.22783661319398
C         5.60719057383427    2.58979623033937    1.11748917624225
C         4.30609946229300    1.70887108867270   -3.61094039378345
N         5.49379939717408    2.56174772441412   -4.12203701113081
C         4.82230715724341    0.83098215757790   -2.49627369006964
N         3.78090024458148    0.18310889028337   -1.71331064611927
H         3.28784092677548   -1.81655331955391   -0.20226459649265
H         1.61781578202392   -1.42529363053611    0.00420112837602
H         2.66849490499937   -1.77829182177018    1.40173845459887
H         3.96422202929706    0.27323206553445    1.05394463853204
H         2.23545062675956    0.67008157522746    1.33325549765484
H         0.68059578667807    1.03536312637148   -0.54570915851007
H         1.16198026247199   -0.03330971385496   -1.88390479702799
H         0.94312019106270    3.02743698579841   -1.92348779513510
H         0.09179386226461    1.84354802103639   -2.94496225345282
H         3.29030310789695    3.54335002946987   -3.94542726734588
H         2.77028493844122    4.22740352998506   -1.70623478180245
H         4.50191862691848    3.87656844116184   -1.81537628765829
H         0.68156042460025    4.22184881734773    1.60319346067612
H         6.53608407607150    2.80589729882269    1.59912369088408
H         3.81108941406730    1.10240097205770   -4.37317947673982
H         6.16284102116389    1.89554003434936   -4.50845165107470
H         5.18829699503493    3.17850932063260   -4.87870036190968
H         5.45688154021737    1.40028298431631   -1.79104442946991
H         5.37880916972693   -0.02984054469883   -2.89191167094270
H         3.09929610443415   -0.22466324002727   -2.38760340541640
