37
 energy: -49.854216126287 gnorm: 0.327143565232 xtb: 6.4.1 (79825abcba525fcdf90b791dcacef51065a7a4e7)
C         2.54881382635312   -1.17546031349715    0.50221226191019
C         2.68981285518524    0.33331925350366    0.61058555039058
C         3.04441061378938    1.00728843442342   -0.78005984612183
C         1.60602707225736    0.87834239007504   -1.75088621394676
C         1.09029866348042    2.15386207737304   -2.39690093898510
O         1.87289908523972    2.54004211747488   -3.45787380983223
C         3.21846970689431    2.83692636101913   -3.17896701506164
C         3.48774332772116    3.39836559820237   -1.76535603376179
C         3.43339236868687    2.45114525076763   -0.48080801404018
C         2.39594798720625    3.11723241087076    0.40825493064422
C         1.37856022094659    3.60877969376798    1.05889994053867
C         4.67545760764075    2.52053936012766    0.39261648401986
C         5.71408365767007    2.49252800660674    1.18033952611420
C         4.16744745131250    1.64164314577135   -3.52177419094468
N         5.11006208656998    2.23427875775675   -4.59857970922448
C         4.90778456936562    0.93974179615120   -2.40872582401772
N         4.12383853963296    0.21884299009715   -1.41724572316927
H         3.50853440939848   -1.54709794415495    0.14905829994132
H         1.71104809249748   -1.44853053187549   -0.15197672394007
H         2.33686786405714   -1.63597634322463    1.47705568714638
H         3.45988954682432    0.63656193099400    1.32819204404410
H         1.72152233842036    0.77760563264163    0.86747990269891
H         0.86079502039674    0.51091252346186   -1.04995176666380
H         1.83976686606977    0.05850888455008   -2.49600622045111
H         0.99892719844381    2.93317195016438   -1.61718481504357
H         0.12061310963485    1.97188353672608   -2.89840418732516
H         3.54812046634040    3.70462475951256   -3.75675614428343
H         2.83965782812772    4.30978596363879   -1.61186706459679
H         4.54628577302026    3.85742574375856   -1.81403847917871
H         0.73907398722869    4.04936512398120    1.78947787373105
H         6.67019870104677    2.46919182241160    1.65658949014087
H         3.54099007651960    0.90782755271399   -4.03452676553473
H         5.99399343958785    1.72747068583839   -4.64933989331409
H         4.61518545415690    2.15858665030563   -5.49056280001695
H         5.45508146000772    1.64262074873944   -1.75255231007943
H         5.65120040234327    0.22131385297687   -2.78079277543433
H         3.63577503027160   -0.59940790588217   -1.83890022800879
