37
 energy: -49.853632424908 gnorm: 0.328108228599 xtb: 6.4.1 (79825abcba525fcdf90b791dcacef51065a7a4e7)
C         2.59515404874840   -1.29143388308438    0.54275181695030
C         2.84779936662018    0.20661628613266    0.55032222358942
C         3.09931710198387    0.94638867480191   -0.82929521875600
C         1.60450526366885    0.85917963583880   -1.71586742797355
C         1.09277678071881    2.14927758101788   -2.33557908695419
O         1.83070995573465    2.65838475086668   -3.37650482623496
C         3.17512170110996    2.95786396022087   -3.09479786136844
C         3.57803203927390    3.40675028935217   -1.68680693039261
C         3.36960942801559    2.37335994479654   -0.48726183806775
C         2.24544543168995    2.94261415697818    0.36279742110254
C         1.20463845852536    3.34910174853941    1.03475291372612
C         4.59873352144819    2.58766087075553    0.38092077333892
C         5.55673979979707    2.46674722153864    1.25707151381957
C         4.14520909488035    1.81086907642414   -3.54674700259684
N         5.11660534852954    2.35812565819730   -4.62199069377770
C         4.99893405256976    1.11232795074137   -2.51580800720881
N         4.26207444103647    0.34595410670530   -1.52232509331708
H         3.49897567302255   -1.85139078573180    0.31155799035636
H         1.89003588951522   -1.63641873896992   -0.22417440426956
H         2.23886154931703   -1.58356206863432    1.54026501798672
H         3.71020740601204    0.40340596209475    1.19643328912609
H         1.96823573672123    0.67368473278676    1.00769133786097
H         0.87773312381373    0.39116317660004   -1.05674113680486
H         1.77533589140071    0.14448309831648   -2.57725633415651
H         0.84126947942954    2.86536711140997   -1.53084949385656
H         0.12818588120505    1.89564453311392   -2.81531489352254
H         3.42293399685502    3.80992824154752   -3.73353563099133
H         3.08191272227434    4.37674896497883   -1.39146144773391
H         4.69109220945504    3.65643918517816   -1.86672584209717
H         0.61408699661591    3.76916232255762    1.81680171325856
H         6.32370589433143    2.50304273820559    2.00001177552677
H         3.47328152276022    1.07939234142168   -4.00205403495287
H         5.85592205748344    1.67009349222459   -4.76617182060788
H         4.70132045347357    2.42335111866021   -5.55448739936330
H         5.64269009841107    1.87998491327010   -2.04632176666166
H         5.61778735584627    0.33252339701970   -2.98074356563196
H         3.84109607878306   -0.46765831710484   -2.01865671793650
