37
 energy: -49.854459257340 gnorm: 0.319145220546 xtb: 6.4.1 (79825abcba525fcdf90b791dcacef51065a7a4e7)
C         2.66347513269503   -1.34680774711118    0.41389193430686
C         3.15188812436230    0.08537794921444    0.54931039086653
C         3.18864241431493    0.96073013572213   -0.77215709560198
C         1.59982165281804    0.80323046259248   -1.46419797020872
C         1.02381852277088    1.87989492703607   -2.36933625490232
O         1.84726592918598    2.30916143664746   -3.38172279608156
C         3.10570544054539    2.87759182594283   -3.11770302246356
C         3.40805811685556    3.39078806014411   -1.72500969325222
C         3.35031788330195    2.45561709514522   -0.43181003985402
C         2.15694178439835    2.87265733116940    0.41218447952982
C         1.23258037120239    3.16199422902585    1.28503937271211
C         4.60727686539094    2.62016779371361    0.40687296703468
C         5.49823519346791    2.67556043753288    1.35722089887443
C         4.15197262439253    1.93772711642925   -3.74997018774062
N         5.09077965224065    2.77946172690157   -4.64962215010181
C         4.92026029597587    1.15786954811748   -2.71016374089610
N         4.17119774017300    0.39384812684070   -1.72402185872530
H         1.67309621342480   -1.37733826453698   -0.03567822780468
H         2.52621275476672   -1.82447475129833    1.39234748818035
H         3.37375325593812   -1.91906832410228   -0.19875692756587
H         4.19910162121428    0.12603354810150    0.86809609706154
H         2.62464972579690    0.67966764792738    1.30416868542429
H         0.95126596366052    0.63199797244936   -0.60878019522743
H         1.62956186350712   -0.15781130598778   -2.06209372281504
H         0.64883829480263    2.70102536540146   -1.72998933170815
H         0.13494608647255    1.42021304787184   -2.84210483744134
H         3.18206624653124    3.73767431526376   -3.78840232220219
H         2.70332223491074    4.24730423590747   -1.51527619154116
H         4.46414292215060    3.85657238488921   -1.76172690053954
H         0.34323480623022    3.43587893568196    1.80547562561592
H         6.34785525294663    3.04052579533190    1.89244109708843
H         3.59607286782514    1.24604796172995   -4.38746903275196
H         5.61964606691258    3.42607210447465   -4.06399343671435
H         5.73614596119657    2.10454664620682   -5.06706432790950
H         5.67805319212129    1.77347375242120   -2.18966611451323
H         5.53752120262971    0.43995532066594   -3.26768303358403
H         3.72682332161836   -0.46346249795640   -2.11527996806336
