37
 energy: -49.853546119008 gnorm: 0.327935324736 xtb: 6.4.1 (79825abcba525fcdf90b791dcacef51065a7a4e7)
C         2.75286474035883   -1.40471766131761    0.28518045255938
C         3.00402131985974    0.07723871816565    0.50601283112422
C         2.98562796894034    0.90670770842887   -0.84510208805827
C         1.30957455892459    0.96545709079650   -1.30929128236838
C         1.01590201052874    1.93250786770943   -2.44455799921263
O         1.97296965241551    2.07738128147823   -3.41938880451597
C         3.12213415730031    2.83190024613912   -3.12509027452822
C         3.27229701331668    3.42294079090274   -1.71111069717189
C         3.35074763539236    2.36013043271612   -0.52177319959174
C         2.37343075903354    2.90709700249808    0.50588198323351
C         1.28647067973269    3.24326570925449    1.14270532863929
C         4.69485882975539    2.56450664511352    0.15793815476854
C         5.76576505844778    2.85633631786274    0.84206646963976
C         4.28775713210346    1.95582053818348   -3.56699424483105
N         5.43741138140728    2.88131899587229   -4.03709759012631
C         4.84033478718297    1.01565173426953   -2.52278077273303
N         3.80873601401405    0.22420136335686   -1.86955069227349
H         3.35397011767452   -1.83940262358443   -0.51082027345849
H         1.70349044910378   -1.59542820234233    0.02667496987751
H         2.97416078777486   -1.87555424826683    1.25299075219107
H         3.98808807077418    0.20026472924547    0.97121229641546
H         2.26874886761243    0.49770300998320    1.20139461118150
H         0.61500358851062    1.15415624620942   -0.49464509343486
H         1.17803887785203   -0.11164319095054   -1.63258439970066
H         0.81020142869944    2.90267906446596   -1.95457333009089
H         0.07243482743788    1.67427012319231   -2.96233663182391
H         3.30505777660308    3.67550774477800   -3.79611616786814
H         2.40390131830531    4.10822796684106   -1.48631929826643
H         4.22589343032980    4.06964664924288   -1.63336933210377
H         0.62677878542036    3.61179365871830    1.89489947997566
H         6.67996713349008    2.99786527862896    1.37659313787425
H         3.90290416524245    1.56421084698958   -4.51165260288735
H         6.15638069822843    2.92831705800580   -3.31485112352205
H         5.85853066594713    2.39682955094746   -4.83346090962467
H         5.41501277073208    1.59037833246907   -1.77206715129183
H         5.48019030367287    0.26092494835737   -3.00049619347956
H         3.22180693726469   -0.22905696635970   -2.60140052986019
