37
 energy: -49.855527522955 gnorm: 0.322405281624 xtb: 6.4.1 (79825abcba525fcdf90b791dcacef51065a7a4e7)
C         2.70259520781679   -1.37301412838361    0.32390139517403
C         2.98215040824617    0.10708669556429    0.52187037844602
C         3.04298957012836    0.93965451165564   -0.82609033087723
C         1.51859351442936    0.76348385879647   -1.64661375988279
C         1.02655043752648    1.99768648280573   -2.38478635654577
O         1.84502724538573    2.32204012051174   -3.43937267771775
C         3.10381626749336    2.90784168478206   -3.21851915798238
C         3.27516129558037    3.47050874880749   -1.79105109136967
C         3.20052266287275    2.44735818969432   -0.56718998148251
C         2.15524923529140    2.85020930626703    0.46019034621830
C         1.40745240658888    3.30798645873020    1.42521649401333
C         4.47195086066587    2.65042486220603    0.24067527581055
C         5.46565248533822    2.57045211799834    1.08103099890104
C         4.22945110298582    1.92270969316938   -3.59936928858727
N         5.31863519053697    2.65541010123388   -4.42160865690187
C         4.95371208939494    1.15379756643450   -2.52054521354650
N         4.20100864395436    0.37039053246605   -1.55255234236118
H         1.80465817963651   -1.53810834515768   -0.26800133321338
H         2.58380116415486   -1.82086309910616    1.31873870487770
H         3.56174195893920   -1.85395506482505   -0.16382648382527
H         3.99257562524429    0.13336183802947    0.94410705363990
H         2.29481054996172    0.52990983264674    1.26332579428377
H         0.76430831604495    0.57948886008495   -0.88576929663414
H         1.59829436064953   -0.07310915011048   -2.40537920753359
H         0.88929616184385    2.76274739788260   -1.59772033876309
H         0.06900019268016    1.75058728983273   -2.88172829284611
H         3.16781160633931    3.64641661505275   -4.02214972035265
H         2.47251367619810    4.24392907752451   -1.61261746017821
H         4.25106984872629    4.08001433266401   -1.69244202044911
H         0.84438359886522    3.65946563685856    2.25961340316844
H         6.43514340461805    2.55894666693573    1.52988464471592
H         3.72862995343255    1.23707537923362   -4.28707062890508
H         5.75510499330904    3.41661480141371   -3.90119807804752
H         6.08082463761265    1.97985703419234   -4.51627285853436
H         5.55114528414990    1.86512692074656   -1.91952897722390
H         5.63088352762412    0.41041118010022   -2.96332636760537
H         3.89784761898112   -0.52992059754441   -1.98041482194926
