37
 energy: -49.854638095302 gnorm: 0.323972217642 xtb: 6.4.1 (79825abcba525fcdf90b791dcacef51065a7a4e7)
C         2.47805166624936   -1.25024895332076    0.41232085426958
C         3.03610374612545    0.15186461523560    0.58752557621609
C         2.96372385368251    0.96246593190610   -0.77319309516411
C         1.30695726658125    0.91672032592954   -1.30339112114300
C         1.03599908480757    1.95973011950704   -2.37529294663379
O         1.99471416065860    2.00922877678746   -3.35798168801570
C         3.19880587771720    2.71874290817922   -3.20552714936383
C         3.43919522650187    3.33805604422450   -1.81472766375139
C         3.32515587256748    2.43503422921165   -0.50255744967051
C         2.24085600333322    3.07951914159001    0.34557514334423
C         1.51556464844983    3.89887439102733    1.05454973209585
C         4.63060067595661    2.62579730224376    0.25231690664901
C         5.71977650491983    2.70235104571885    0.96496819517513
C         4.33659839310348    1.75104267575465   -3.65366935934915
N         5.59225993399728    2.59735688168850   -3.97973040110284
C         4.85803639062568    0.83260119299459   -2.57468424473117
N         3.77636200635550    0.25660041158175   -1.79014432688519
H         2.96636585002803   -1.77460667923819   -0.40651617474414
H         1.39126802651523   -1.28639955754974    0.26407628468339
H         2.74608714515152   -1.92088275145102    1.24040484707901
H         4.06594509208557    0.13375746345705    0.96039585579028
H         2.46525818346113    0.64246864488975    1.38402708246601
H         0.72158710259862    1.04655413535045   -0.39665545380102
H         1.16498546182513   -0.14306113378345   -1.67577849523440
H         0.86213907964995    2.92511914063701   -1.86399401951682
H         0.06411337795689    1.73861866190617   -2.85639549996353
H         3.13692944907489    3.53272695911764   -3.93285904347707
H         2.74007894237095    4.20762776793250   -1.64343199291400
H         4.47761695341883    3.83369531210018   -1.91291290572399
H         0.61121581434229    4.31280753605501    1.43875650007214
H         6.57073005065154    2.82340565590445    1.59958495795625
H         3.97832033316876    1.11301238111323   -4.46509005460177
H         6.26074011781427    1.93741483100334   -4.37769571175264
H         5.46844574045061    3.31616194884400   -4.69684638307967
H         5.43392279155088    1.46267247713050   -1.87076562796867
H         5.45875230596526    0.00877601157414   -2.98418648660690
H         3.06923910961188   -0.23911913189659   -2.37304430329803
