37
 energy: -49.853364244266 gnorm: 0.322336508938 xtb: 6.4.1 (79825abcba525fcdf90b791dcacef51065a7a4e7)
C         2.63980974379592   -1.38331449290957    0.33105682926965
C         2.84631955315514    0.10949659513932    0.52317666561337
C         3.00183490200213    0.95431625673284   -0.80947608794616
C         1.48828033342423    0.90222348008855   -1.66651578462106
C         0.99844399088652    2.16131946610217   -2.36293444075259
O         1.87242260222123    2.43126478988559   -3.38789921341432
C         3.19441158605761    2.84057073850698   -3.14030414258987
C         3.52015158290390    3.39212080413777   -1.75557515015140
C         3.33816739557663    2.39890522303368   -0.51838130188447
C         2.29101758571159    3.04311319768444    0.37541351729331
C         1.54877649149812    3.43817328799284    1.37192808146488
C         4.63444247403836    2.51340909563622    0.26709426298677
C         5.42984417334214    2.79435405300052    1.26129865459201
C         4.18849602833501    1.75817181840064   -3.59951719375812
N         5.18231668186699    2.48400300946689   -4.54012286780043
C         4.89805198044758    1.07098677729775   -2.45761164158430
N         4.08186367597969    0.27074485601646   -1.55719575133289
H         3.45257900370462   -1.92119722545691   -0.15266224522661
H         1.73232786004186   -1.53500823857404   -0.26714684536788
H         2.49691312432610   -1.79666255108624    1.33904479904541
H         3.80529443069488    0.32461705087443    1.00693661219151
H         1.99302373859559    0.53591677464138    1.06264279346642
H         0.77257841491485    0.39571417170347   -1.02393995124088
H         1.74679372264524    0.18174087411337   -2.50080634197715
H         0.91910930850311    3.00066458656217   -1.64680900953578
H         0.02191883478879    2.03058327829379   -2.86713523340854
H         3.36973939084188    3.65552538452152   -3.84777816868598
H         2.77491470637366    4.22999941715406   -1.62579766680335
H         4.55515086562264    3.89727465102804   -1.67063760765428
H         0.93096362429431    3.84697048489171    2.13873598132221
H         6.38887672490636    2.71781600104342    1.72596320452147
H         3.62352427878625    1.08909450766779   -4.25296332331659
H         5.99556014683718    2.77110689496015   -3.99517141995491
H         5.40447297343318    1.75960526567028   -5.22726222891498
H         5.51638377352451    1.76019701450718   -1.85197855842140
H         5.59268845332583    0.33150435202481   -2.87937643361558
H         3.61810916176897   -0.55893558668765   -1.98392183780514
