37
 energy: -49.857480176135 gnorm: 0.322021029823 xtb: 6.4.1 (79825abcba525fcdf90b791dcacef51065a7a4e7)
C         2.83431586412630   -1.37648999938591    0.50310598582338
C         3.01923292555094    0.12853452972349    0.59663739597123
C         3.09629580575644    0.90029594559550   -0.78622712213013
C         1.53625247304598    0.76478162367897   -1.54515979360401
C         1.06723738239210    2.02016019799521   -2.26231442756956
O         1.81705482346697    2.47258213126604   -3.32078033418221
C         3.12228018062356    2.94062719163831   -3.08881020558769
C         3.46684527173587    3.47461834811644   -1.67422195315917
C         3.42565957733231    2.40114204715497   -0.49261440865759
C         2.32374496738662    2.89189523680489    0.43223225531545
C         1.14934996105525    3.27618183802879    0.84835211765221
C         4.65333522912301    2.46024611786477    0.40166252645707
C         5.71118339490656    2.77242880527010    1.09702967764498
C         4.07940877538790    1.85710337935799   -3.63663711317424
N         5.03943406283482    2.58756746816931   -4.60824562784803
C         4.84922467365841    1.10237055947803   -2.57956423329054
N         4.10096898362178    0.25581523170265   -1.66263634313802
H         3.58390402293139   -1.89601844792501   -0.09027722105660
H         1.90530366173847   -1.53398675873512   -0.05948898108002
H         2.73705627161867   -1.82673326491277    1.50067171387528
H         3.96810507864125    0.29768573876068    1.11717828554878
H         2.19508760445506    0.58542480435534    1.15610802648944
H         0.78829231920950    0.49582023186392   -0.80360737110872
H         1.55169944363550   -0.12751260038112   -2.24196500370466
H         0.91928427290040    2.87429445565643   -1.57515039794520
H         0.08299631704551    1.82581056673702   -2.72965746726764
H         3.18119418684793    3.80952198951145   -3.74984075094357
H         2.76702784517162    4.33598074262522   -1.46789415676558
H         4.53630695027768    3.90989258664019   -1.69438045982235
H         0.24323920452235    3.58073025370955    1.32059763706802
H         6.56973355756517    2.82178941502642    1.73104054151037
H         3.46763393119071    1.23030076584320   -4.28985942867835
H         5.60349730017480    3.30614790825216   -4.15410856670415
H         5.67042207707818    1.84756711245587   -4.92529390511754
H         5.37761040609607    1.82433984416063   -1.92863777155386
H         5.63890201405278    0.51854012424842   -3.07230285317068
H         3.62871199282565   -0.49783081746242   -2.20533700333341
