37
 energy: -49.853904148305 gnorm: 0.330519508040 xtb: 6.4.1 (79825abcba525fcdf90b791dcacef51065a7a4e7)
C         2.72720940730340   -1.25013028876703    0.51428196733278
C         2.94993395507116    0.25072235949847    0.59093952746876
C         2.85268651758048    1.00510104282247   -0.80021983939707
C         1.19964279707503    1.00729858240981   -1.34383713141086
C         1.02178966814378    2.05205944093940   -2.43338029356519
O         2.01202182543600    2.01507616035911   -3.38487090715711
C         3.22447876483061    2.70931691344099   -3.22845000400020
C         3.43964391077337    3.37636024517048   -1.83433369023821
C         3.39863942264171    2.40477630856416   -0.56761062121281
C         2.45994543609581    3.18128692611332    0.34138924820543
C         1.39044889257686    3.56863790150153    0.97870540876078
C         4.74625112632157    2.49899895112724    0.12915098887715
C         5.76870482490638    2.60947408475522    0.93066206324331
C         4.36957516877151    1.75699389616498   -3.55904740299562
N         5.57100529940820    2.70782955826341   -3.78648229094307
C         4.74972521888994    0.75774826746122   -2.49291639184055
N         3.59482640090866    0.20524790320451   -1.80135921840710
H         3.49518869780152   -1.78480899342828   -0.04089578709973
H         1.81874425716470   -1.57754741808661   -0.00713062609016
H         2.75087838735479   -1.74681221719796    1.49410983467577
H         3.96093985050363    0.42052989201712    0.97690039783533
H         2.16511158538614    0.70542886105304    1.20597405108180
H         0.56030676286136    1.11004272453485   -0.47069470663104
H         0.97534852200306   -0.00658589341217   -1.79516344340870
H         0.83604835751264    3.06171889655085   -2.02141208415779
H         0.07903145695223    1.74374216090209   -2.92435807383532
H         3.21807503643482    3.55064745055672   -3.92668515878115
H         2.66746807890806    4.18235482057697   -1.66587599430009
H         4.50025132647404    3.83221977712167   -1.86470319206701
H         0.69661857619693    4.13970693276093    1.55253635111133
H         6.68574481336440    2.73147872703309    1.46514040677805
H         4.07726237473151    1.28298672758637   -4.49911112655604
H         6.28440799141709    2.08861378784936   -4.17170181744914
H         5.23016444295468    3.32935739713840   -4.52390799348674
H         5.46744969823806    1.20980005404738   -1.78252414607659
H         5.26106753672260   -0.03859945044764   -3.05112690117661
H         2.92418870849562   -0.21169343408298   -2.48101946156778
