37
 energy: -49.807957922505 gnorm: 0.339146407251 xtb: 6.4.1 (79825abcba525fcdf90b791dcacef51065a7a4e7)
C         2.96837514202795   -1.43951193613830    0.11692623499718
C         3.29160528561250    0.00692159636662    0.45068301451977
C         3.13821034650274    0.95783988645987   -0.80871884519092
C         1.56729086223112    0.84811040331199   -1.54915759737444
C         1.05409631440533    2.10633630572497   -2.23015702744526
O         1.86604561414264    2.83846778908875   -3.06201260495870
C         3.25444550636176    3.00941976460316   -2.92197434799153
C         3.76262591528978    3.44241463442403   -1.58255225382182
C         3.35493678686090    2.44751809158007   -0.40178366891647
C         2.09446997500132    3.03308778432325    0.21362465113627
C         1.18112653142132    3.58848193491355    0.96020121832983
C         4.41291085981990    2.48997964924452    0.68876658345697
C         5.13841881833831    2.74588104704192    1.74147212846711
C         3.98749569471827    1.74412303621570   -3.79884632989394
N         5.01795539325788    2.37647444848498   -4.76710969513626
C         4.76907011029986    0.84718255436429   -2.86917949442521
N         4.05927269364401    0.26639126056164   -1.73950327675405
H         2.00826491214455   -1.45410515743905   -0.39480731994369
H         2.82998520007523   -2.02059208166922    1.03756519062689
H         3.73106485206264   -2.04835396170638   -0.38798128365633
H         4.33840802673210    0.07762828256022    0.76554472684003
H         2.63701859239707    0.27161166154065    1.28879222591949
H         0.86194461863725    0.56185045898296   -0.77312503474202
H         1.61973503617148    0.00534679644963   -2.30345475606984
H         0.53844924150998    2.63242261940463   -1.40494727040081
H         0.26333306098110    1.65446664517769   -2.85898057786923
H         3.49919566344290    3.92998976947005   -3.45868529304445
H         3.41554410841148    4.43010531456041   -1.16034127878500
H         4.91554053358223    3.37767934209650   -1.59723333350812
H         0.39729536908445    4.08267911251646    1.48762906072851
H         5.97674610633991    2.57111742985658    2.38036151063467
H         3.25381626375523    1.26487877262779   -4.45144789147819
H         4.43597203176609    2.61378214000061   -5.57069297108965
H         5.54528821049531    3.11717785926938   -4.29855386301675
H         5.72661275099035    1.34648863208874   -2.62846821328873
H         4.96454080533239   -0.02688170716797   -3.50560898829653
H         4.56134474739469   -0.40911084779280   -1.12537495643449
