37
 energy: -49.854868527347 gnorm: 0.312493214132 xtb: 6.4.1 (79825abcba525fcdf90b791dcacef51065a7a4e7)
C         2.80234735000149   -1.43627487481860    0.33694751150365
C         2.72544424347626    0.07202973913410    0.50170303010127
C         2.90445807362579    0.85397512706603   -0.86591683823466
C         1.49192586203517    0.82179497409488   -1.88169010006373
C         1.01505642336092    2.18535421753224   -2.35451460953946
O         1.82168407634158    2.63046253428446   -3.37357902934481
C         3.17100213260555    2.91565727091910   -3.10064259494411
C         3.40047423636027    3.35073069962198   -1.66525538583212
C         3.28071283652725    2.30027486607689   -0.46840795183683
C         2.26771417035039    2.80105208035414    0.54818033724411
C         1.74845768439534    3.69901150433866    1.33816585414935
C         4.59569525076356    2.44177219705292    0.28073271265168
C         5.49752847230534    2.83684200037715    1.13551513622598
C         4.20596622554184    1.75738585120747   -3.54257900262069
N         5.17117822031418    2.39226110551602   -4.57434867646488
C         4.89697340376554    1.06487440537259   -2.39254500452662
N         4.05727489650733    0.22585488562755   -1.55096796205263
H         3.76798150899287   -1.63556101267821   -0.12319545871674
H         1.99633425776521   -1.75712467676058   -0.33519852754784
H         2.74120741186030   -1.96766496659112    1.29674034669840
H         3.46750324514077    0.42224882747255    1.22739465892432
H         1.76366593433659    0.34474130129792    0.95068243660667
H         0.68569761191989    0.32239942367011   -1.35038537583733
H         1.75503868358873    0.22733470921662   -2.80870343782511
H         0.92569439911242    2.95422337549831   -1.56427129089285
H         0.02541775449623    2.01518760923231   -2.81988586025468
H         3.41811333180901    3.72448403596284   -3.79356808239230
H         2.62612366523985    4.14169883627795   -1.44387028046481
H         4.41184724993331    3.90559343880229   -1.71883030058891
H         1.09225990485044    4.21135217086774    2.00428430616559
H         6.37823527133628    2.93108774028030    1.73299975053007
H         3.66022969067172    1.03478773837845   -4.15403053098598
H         5.77799606581952    3.10674254779679   -4.17178933192233
H         5.78444724522712    1.62825773241367   -4.86839962383073
H         5.35114639898031    1.84677905870432   -1.75498058251773
H         5.74326428298428    0.50283171696544   -2.81104158819182
H         3.70968312049230   -0.57221057537154   -2.12351011457074
