37
 energy: -49.853908718058 gnorm: 0.322333250075 xtb: 6.4.1 (79825abcba525fcdf90b791dcacef51065a7a4e7)
C         2.53865752342116   -1.39812517887953    0.37357140311769
C         2.97517322381934    0.04929626488853    0.52345964474233
C         2.92346799357141    0.92651472749953   -0.79626873035507
C         1.27840770630318    0.95439360111405   -1.36290578433600
C         1.03376615484714    1.83169659940855   -2.57976701294391
O         2.09021654325561    1.96790342895885   -3.44730499629757
C         3.17531902359193    2.82251782768720   -3.18524319303254
C         3.30420913785857    3.36129922760973   -1.70380404263833
C         3.25917843983725    2.37682691666155   -0.44720922462802
C         2.24278283152484    2.93016547869126    0.53826131775986
C         1.42662824948159    3.47324692696021    1.39790647620579
C         4.62183261939931    2.46741407668532    0.22015843810916
C         5.83880311206989    2.84869789425090    0.49152856824971
C         4.34511058029253    1.94937239523591   -3.60903556198749
N         5.48501960802712    2.88610117153358   -4.08062442055865
C         4.85113039565066    1.08713661420665   -2.47760521749712
N         3.83448881005092    0.30846393154625   -1.78665804430201
H         3.15986416466693   -1.78744730171805   -0.43043508966015
H         1.47960446695099   -1.60642210329045    0.17507451890084
H         2.83874986748625   -1.97352281976071    1.26023816587988
H         4.03354708621544    0.02153110491695    0.80454179547863
H         2.34811863083658    0.53947254820639    1.27678651168818
H         0.63943728536041    1.27034877718716   -0.54219039808697
H         1.09053178976694   -0.13861931654107   -1.59092002486180
H         0.74967729194774    2.81579896816207   -2.16207585651806
H         0.19948698503861    1.48015072872826   -3.21640312430778
H         3.13749489435360    3.71889455753878   -3.81013398766903
H         2.52980608293232    4.12674626638187   -1.40606001294285
H         4.26597630022022    4.00051894688388   -1.70831862509493
H         0.70884489512083    3.77638493645011    2.12570908526057
H         6.74098700927287    2.80138759710282    1.06191491950741
H         4.04078421565088    1.38185472615701   -4.49173513084057
H         6.01884096287182    3.26041032764155   -3.29596330156406
H         6.11378479430668    2.31613673297906   -4.65164183710843
H         5.44960288760960    1.66423594582698   -1.74758917199976
H         5.53355791430560    0.34255941633098   -2.91019868111241
H         3.17862961474588   -0.03959387504881   -2.51757357880809
