37
 energy: -49.854679916677 gnorm: 0.321686148543 xtb: 6.4.1 (79825abcba525fcdf90b791dcacef51065a7a4e7)
C         2.52566553409260   -1.23307564051251    0.35590207903731
C         2.73329005194256    0.24807805987580    0.62257988649886
C         2.99398351553213    0.98757354865840   -0.75548179070518
C         1.57406125667108    0.81006357974494   -1.74562780068551
C         1.10321867310596    2.12799175278333   -2.33861505305676
O         1.92642975399766    2.51976890644469   -3.36628039466635
C         3.27888999419501    2.79540522238715   -3.09913722685015
C         3.49674154134780    3.39909216979087   -1.68765313402746
C         3.27533290641262    2.44027538481072   -0.42992001879601
C         2.14243448630003    3.03614654313589    0.38975949953206
C         1.53638829470203    3.87638282827081    1.18143273199431
C         4.55564300341717    2.53293095854650    0.38410268637632
C         5.74456122971906    2.73845407615105    0.87833938135149
C         4.21761629533434    1.65742392443199   -3.52484517089738
N         5.30261467969564    2.15472074097827   -4.51212619754496
C         4.89454782721880    0.90193236236247   -2.40652615520450
N         4.08373282295853    0.22460379979221   -1.40597415572383
H         3.43179416963110   -1.78332484461293    0.11084584847676
H         1.82615910365502   -1.41016219397132   -0.47096738136947
H         2.15474093294911   -1.63602702054067    1.30845702962779
H         3.65450096981324    0.42021438580131    1.18974198174171
H         1.92078219792686    0.73622588574296    1.17259289275321
H         0.78183971801851    0.42142780185276   -1.11077987935444
H         1.74068584883093    0.00677972884395   -2.52597156611645
H         1.04528402715802    2.90068999488565   -1.54917800057386
H         0.13164230141839    1.95778771367837   -2.84059285110782
H         3.49966813180074    3.63483644475350   -3.76398506558494
H         2.84966636473454    4.32222791530202   -1.62955949991971
H         4.58387891077489    3.78728522438824   -1.65514473259450
H         0.89608565936234    4.55832179204462    1.69307130005289
H         6.61719505955962    2.89515275750105    1.47455269550185
H         3.59138077414189    0.86673766805841   -3.94495668677603
H         5.75094706960539    1.32271910835439   -4.89623166010390
H         4.78753022116729    2.56024454224310   -5.29730417602431
H         5.52177634815078    1.61324690767488   -1.83665565320928
H         5.52634914851944    0.11601282943086   -2.84287143677316
H         3.59207909522918   -0.58861930148875   -1.83314840464664
