37
 energy: -49.855877474934 gnorm: 0.326438925345 xtb: 6.4.1 (79825abcba525fcdf90b791dcacef51065a7a4e7)
C         2.62694197450100   -1.37802590894105    0.26588976548684
C         2.86807634637024    0.10015754124790    0.52058405247322
C         3.11837425840383    0.90605587493630   -0.82170782225987
C         1.62551720752834    0.69775608276828   -1.69122904307483
C         1.08546404785552    1.96658054084145   -2.33051643419203
O         1.82706003838642    2.55007514616265   -3.32893083136559
C         3.16061921864460    2.93692973721672   -3.10881043207242
C         3.32707469651936    3.42887041092359   -1.66121766098249
C         3.19709548659530    2.37696208648110   -0.46671429323950
C         2.07649389218714    2.82511252933617    0.45730361946342
C         1.51347421795883    3.40965830781952    1.47776948152892
C         4.48069531988463    2.52325830093370    0.33414824202525
C         5.68872886625179    2.78765807887114    0.74740843591513
C         4.20055746213386    1.79472622893208   -3.54208887583624
N         5.03410679410782    2.45898455880878   -4.66601317298686
C         5.00099614261959    1.24136867815242   -2.38764764311178
N         4.27138399523597    0.31314456079710   -1.53713876087027
H         3.51906826374687   -1.83625199015126   -0.15605263510285
H         1.76776297710043   -1.59327750578619   -0.38207643629963
H         2.43443952461136   -1.82807490599500    1.24961458235318
H         3.77337830059421    0.18660951117754    1.13122940022510
H         2.01219182311365    0.47755275099309    1.09155354225966
H         0.93172852943546    0.24373949958844   -0.98822774174986
H         1.81754008894868   -0.01461047801212   -2.55008071135791
H         0.77825457850353    2.72211278212719   -1.58323922281986
H         0.11719748126350    1.72887391074824   -2.81100283843553
H         3.37030743409379    3.78025498766973   -3.77231912533860
H         2.57530782950602    4.25055952476240   -1.47700490302624
H         4.35132934380489    3.95605780298496   -1.58001313031111
H         0.77828493479829    3.91542239723612    2.06129470204155
H         6.66779277002883    3.00807192927166    1.11396833787147
H         3.65106253472480    0.96288776573235   -3.98924596867330
H         5.41162472167959    3.26931437279135   -4.17447328464742
H         5.84959450043647    1.88500974911204   -4.89360651505625
H         5.40205066551012    2.01342787465202   -1.70411545247721
H         5.82702691886809    0.67687813385336   -2.84180973824221
H         3.85571180293874   -0.49277357537261   -2.05021343936366
