37
 energy: -49.855121151647 gnorm: 0.331256118003 xtb: 6.4.1 (79825abcba525fcdf90b791dcacef51065a7a4e7)
C         3.00843456857054   -1.35315101522710    0.39734747808833
C         2.96326593846099    0.15716355151105    0.55530627618075
C         2.99110941044144    0.96413840242703   -0.80920278463931
C         1.40183473726493    0.82566522322546   -1.50426344609433
C         0.90220091951660    1.92518023015867   -2.42713618211204
O         1.80380572180163    2.26322421612916   -3.40698153735509
C         3.04296592464495    2.84991572072607   -3.09591141310514
C         3.27437181718147    3.44928320994941   -1.76297998490244
C         3.29919116685453    2.44150487141309   -0.52442807796964
C         2.30527266198007    2.93093490817578    0.51623520599440
C         1.31082339691848    3.45174077904267    1.17946023170449
C         4.63710601723542    2.45707418956689    0.19678856402671
C         5.73005581220259    2.41846454302918    0.90672256144131
C         4.18883265404388    1.95709066630370   -3.53004222263446
N         5.21388588335360    2.74741705033292   -4.38086507562450
C         4.91300227431036    1.15878890218694   -2.47271830134130
N         4.03133419430492    0.33771488314740   -1.65675377492058
H         3.90811856602068   -1.70061491743638   -0.10637207511116
H         2.13266283331576   -1.72776712405435   -0.14769255431076
H         3.05748118225203   -1.79071396892190    1.40404946950588
H         3.91879899608357    0.43238011500474    1.01481224038833
H         2.16040345246475    0.48778251544286    1.22394261158986
H         0.65184095150962    0.59288604057002   -0.75259344483341
H         1.50391222044160   -0.08766196694147   -2.16560959085422
H         0.62980859733887    2.79896640301748   -1.80590353382555
H         0.06002440429765    1.48007061093205   -2.99063233538175
H         3.15055350991442    3.64895091794757   -3.83440858770583
H         2.41283911503498    4.16561298674298   -1.62552520805849
H         4.25574976820795    4.05738729073906   -1.78990671627780
H         0.53620562482703    3.78641408637285    1.83119894083589
H         6.69194469432349    2.40276707075009    1.37152141707744
H         3.77969801212150    1.28907553349361   -4.29176001611294
H         5.62440342646432    3.47708609143935   -3.79792074539620
H         5.91423345984489    2.10305888825668   -4.75580752689509
H         5.41363574256535    1.85577390283167   -1.77435276080551
H         5.71145780695779    0.55140122464632   -2.92081270894097
H         3.68687487935858   -0.50996646783764   -2.15506808025190
