37
 energy: -49.855563837422 gnorm: 0.329629260007 xtb: 6.4.1 (79825abcba525fcdf90b791dcacef51065a7a4e7)
C         2.41781571395453   -1.17810441443996    0.39787276898415
C         2.93601926266175    0.23337746080194    0.61518654109934
C         2.99715564372970    1.02687355192376   -0.75612485400788
C         1.33915737267614    1.07396683119359   -1.28233972225801
C         0.98591103155270    1.97299726485990   -2.45589099555782
O         1.90533750648544    2.09352339354649   -3.46949362265738
C         3.16497787743730    2.66958949826570   -3.22877899711804
C         3.44520045967296    3.39458311697002   -1.87283878062861
C         3.44363564287769    2.45550061933107   -0.58118650648015
C         2.40697180808549    3.03571114957052    0.36701158466857
C         1.47647270539759    3.56965605188077    1.10803097864167
C         4.77259883899346    2.48893228849573    0.15580134510643
C         5.75440550900067    2.67314948297950    0.99374878797585
C         4.32971553435035    1.69296302046204   -3.56561688543287
N         5.48852494423055    2.56114885046416   -4.11576555583991
C         4.90364392796743    0.92244838539006   -2.40090463932994
N         3.89575648160007    0.22442662108776   -1.61717779374625
H         2.98862917424822   -1.65921188499665   -0.39371010236682
H         1.35880800650807   -1.26120706574642    0.12223056773763
H         2.49789545239717   -1.86575684242090    1.25112371804649
H         3.95463388223089    0.25630692857977    1.01746978521409
H         2.30002326039782    0.78561194396610    1.31626983179751
H         0.74299427454306    1.31753244732606   -0.40658292471854
H         1.08943538325408    0.00752103409979   -1.56921492497707
H         0.69267334737563    2.98099562049939   -2.10720656519080
H         0.08583478270031    1.60250143638247   -2.98268066706768
H         3.17827374927994    3.44067411911805   -4.00380295744114
H         2.72857610283072    4.25592735862032   -1.73573887256901
H         4.51616735450973    3.82137619860236   -1.93989009567510
H         0.61824045898366    3.87307095663079    1.66316974412340
H         6.56413777393719    2.90805132658538    1.65000283137283
H         3.93509966848331    1.01765758534056   -4.32856528309553
H         6.22652196660763    1.89904026406895   -4.35605344501294
H         5.19844392113905    3.09040217423311   -4.94160448082498
H         5.53129051194031    1.60111123244183   -1.79294666829360
H         5.59338229065198    0.12752445943417   -2.71649388118389
H         3.28979641900285   -0.35313059699053   -2.23747860929551
