37
 energy: -49.856978343689 gnorm: 0.319989661464 xtb: 6.4.1 (79825abcba525fcdf90b791dcacef51065a7a4e7)
C         2.69576449940418   -1.43706562746802    0.22112833933055
C         2.88098241517366    0.04945618793578    0.47408780939385
C         3.06476864051890    0.90113610640179   -0.85057538772266
C         1.61644162865703    0.78291586655230   -1.80788984639833
C         1.08756804809482    2.11754365522390   -2.30721207762814
O         1.80048814162435    2.71519660679012   -3.31806209905594
C         3.18069582188466    2.90439815864826   -3.12906716741745
C         3.49377644147296    3.41941558600758   -1.73277938876755
C         3.30220691871425    2.38090853098027   -0.53484439766878
C         2.25632297886403    2.93225998128646    0.42042221843020
C         1.62368079694127    3.56478465248038    1.36895367143708
C         4.49204508682334    2.54135796952296    0.39733218377986
C         5.33236435893863    2.99490425868045    1.28513599599431
C         4.07508320133365    1.72774578633622   -3.54610737015653
N         5.03175273324941    2.29377949017612   -4.62482823126909
C         4.91878161034461    1.06234712247912   -2.48541946468838
N         4.19478686628944    0.23201869861561   -1.53479568236475
H         3.63357467678189   -1.87191401801340   -0.11845198299570
H         1.92401536108010   -1.71757827240672   -0.50694989938143
H         2.50669568523110   -1.89562299057387    1.20158432330799
H         3.68318782874585    0.24523563211678    1.19385874226428
H         2.01330479421105    0.42708183916158    1.02681381145325
H         0.83074321207981    0.34303428649389   -1.19890149591197
H         1.91140598283407    0.14359237090877   -2.69458403815332
H         1.04498866954401    2.77175568304356   -1.41624435907760
H         0.06085691149333    2.03209934224861   -2.71153284382717
H         3.46140847581490    3.66701869373581   -3.86051828483946
H         2.83146458631227    4.31250342365130   -1.53784890941741
H         4.57351399240823    3.82203251626665   -1.65738215346149
H         1.01473696195155    3.95791498885378    2.15089885220441
H         6.02979390059977    2.91884547582684    2.09094102226391
H         3.47790985280669    1.06255064200010   -4.17439773419256
H         5.64976045117210    3.01439439974972   -4.25126931010223
H         5.58128192046222    1.51357963409516   -4.99302908361470
H         5.39581467294499    1.89483345431397   -1.93447268562769
H         5.69956918285042    0.42674906960764   -2.92544845051447
H         3.79911787940887   -0.53020348644274   -2.12470790701443
