37
 energy: -49.853598884900 gnorm: 0.327323890430 xtb: 6.4.1 (79825abcba525fcdf90b791dcacef51065a7a4e7)
C         2.60395325255839   -1.33856811033063    0.38111546140820
C         2.91720434035519    0.13510169538797    0.57659522313806
C         2.90755133816776    0.95965828846834   -0.77761373059083
C         1.25780926422322    1.01289006436824   -1.32860882926053
C         1.01978908301318    2.01858832933059   -2.44313952977551
O         1.98875527500568    1.89665303348486   -3.40931662459430
C         3.16548392142664    2.64092636444194   -3.21474927481600
C         3.42582793950771    3.29305687966933   -1.82363625060869
C         3.30177419059000    2.39255163520706   -0.51064538705065
C         2.35504776495963    3.11867564290955    0.43108109481990
C         1.60904029455183    3.94391337156608    1.11114807365923
C         4.67508794735565    2.59838567329466    0.10745954260724
C         5.68094230430413    2.86270568311224    0.89386159899893
C         4.34980640089521    1.73207994656490   -3.62681935626654
N         5.56717802957863    2.68112964621000   -3.75550668532732
C         4.77158860983918    0.79723793358187   -2.51875284246060
N         3.73097316721991    0.16782544406884   -1.71984191185527
H         3.19062390802894   -1.83611520233779   -0.38840405109580
H         1.56381026281332   -1.39134009342193    0.03513905055646
H         2.80376766946342   -1.89718181454650    1.30596179271942
H         3.94044224616314    0.23801607607195    0.95385657887250
H         2.20430352350884    0.55172700143486    1.29712794235422
H         0.51449637170682    1.18872549236395   -0.55514101259158
H         1.11382512079707   -0.01876923171759   -1.77235735635073
H         0.90274661891877    3.03878961169558   -2.03189719074270
H         0.05666703876270    1.73945764694738   -2.91153440666293
H         3.16982170418097    3.51240473511600   -3.87498941664546
H         2.76039587255660    4.17246474246407   -1.58259114772103
H         4.49039587748539    3.71155426729285   -1.98229735649820
H         0.96628470914073    4.58491022265961    1.67042484828324
H         6.62962171264370    2.80511022755241    1.38192385681845
H         4.09078008349491    1.21124300255798   -4.55174292847641
H         6.37695214011990    2.11991141023142   -4.02020582850472
H         5.45620754950890    3.27732988645565   -4.57921587963078
H         5.45939903989661    1.32873967794546   -1.83423907568763
H         5.25577177576903   -0.01164386358921   -3.08312552660009
H         3.11170321964849   -0.32085893169749   -2.40044851796594
