37
 energy: -49.853647806561 gnorm: 0.314064990623 xtb: 6.4.1 (79825abcba525fcdf90b791dcacef51065a7a4e7)
C         2.65170877541041   -1.35321786770188    0.40788952991298
C         2.82066233148913    0.14483464186428    0.59586466636171
C         2.97505212904406    0.95534247348077   -0.75805907269051
C         1.55009065415883    0.79116295718873   -1.74325347617265
C         1.05508780644420    2.10279207029306   -2.33050345660831
O         1.85133233112200    2.51377245066048   -3.37182552973301
C         3.18985069810844    2.85912707907532   -3.11572337446223
C         3.40998579757656    3.42880957328630   -1.74458618730826
C         3.28323208963557    2.45877413209993   -0.48236244880252
C         2.24815113076855    3.00827020250988    0.48565476746215
C         1.24523374016441    3.59452518201522    1.07768292546006
C         4.57211434506798    2.57365240191464    0.31513206377933
C         5.72891717903988    2.39107065305902    0.88828771363115
C         4.21840638462995    1.80759412435153   -3.56405832099957
N         5.21611971285948    2.56023193461087   -4.47912874701505
C         4.91039367720874    1.07363053941762   -2.44062952359982
N         4.10037875182754    0.32869832124345   -1.48865732480714
H         3.59938251081823   -1.80120277605660    0.11613644945224
H         1.84450189778273   -1.58280105523151   -0.29928132275950
H         2.39006747802720   -1.83279517756912    1.36123377184173
H         3.68794354919500    0.43037926025085    1.20102652276300
H         1.95791891353154    0.48990844930654    1.17687196571238
H         0.80018678973188    0.36019306981131   -1.08477510325974
H         1.78122669708501    0.03216927500823   -2.55100951116375
H         1.04980176070091    2.85635441996453   -1.52072219033918
H         0.04447603869562    1.86043250014170   -2.71107863219762
H         3.34868179067195    3.73591619760300   -3.74930362783155
H         2.66796342637817    4.27273614260852   -1.63757446696515
H         4.46331619747605    3.89887225063156   -1.80075069611795
H         0.83981097081590    4.13167293858734    1.90466959077209
H         6.64307206425569    2.58389779391888    1.40660531621734
H         3.69045712522575    1.01679701423084   -4.10235088074287
H         6.13617111164235    2.28829937617958   -4.13225158986598
H         5.20289705082346    2.15446878791832   -5.41798307047582
H         5.51672635337054    1.73437695689120   -1.79262393224519
H         5.62722873393102    0.36178015532006   -2.87266674262463
H         3.79815940746363   -0.60195298822665   -1.84654647996950
