37
 energy: -49.812369008506 gnorm: 0.336716275010 xtb: 6.4.1 (79825abcba525fcdf90b791dcacef51065a7a4e7)
C         2.75186451201006   -1.33524646142523    0.60115409038057
C         2.84656169392899    0.17863742701927    0.51612883783712
C         3.00882424128975    0.86316782763345   -0.90477145505965
C         1.53313871803711    0.64502760477258   -1.80078775565323
C         1.08156066271446    1.84890513634252   -2.61135387764771
O         1.89434110621307    2.44870011109028   -3.54242627819854
C         3.11897442717747    2.99719793031733   -3.12300653192923
C         3.36182218257600    3.48716186848767   -1.71310014230353
C         3.28747895316052    2.41297606160727   -0.53376047333911
C         2.33148367252823    2.84945299835429    0.56440014661221
C         1.58786328057861    3.46505740002176    1.44081079961438
C         4.46529196440121    2.55292669892334    0.41680902534511
C         5.61997024375509    2.41088334104811    1.00551793116095
C         4.22660057429372    1.90382848012673   -3.66325576875596
N         5.11148742136158    2.91367487990856   -4.43554778612980
C         4.80964826136703    1.08559900174475   -2.53622554052628
N         3.93138442989177    0.16557449157741   -1.82946759083788
H         1.93000368640497   -1.64256536633574   -0.04227090206237
H         2.49419673380937   -1.64526020454176    1.62187971136415
H         3.64202566672621   -1.91725987613570    0.32512997548369
H         3.71528311271024    0.53967906151599    1.07729311580985
H         1.96497073819816    0.67481392058810    0.93752875924860
H         0.85609127521964    0.29698241556375   -1.02480069145977
H         1.81593892594560   -0.17745221459761   -2.52571263534203
H         0.76016874412075    2.64053485229684   -1.90874482288407
H         0.19626596816701    1.36803255401365   -3.06953139131869
H         3.30088300002037    3.86623030218982   -3.76105231363928
H         2.59145161577423    4.26417294603207   -1.43553259828841
H         4.38135719523381    3.97181532263058   -1.46963002109987
H         0.89628141043662    3.75182845705857    2.19994130825293
H         6.38238533402249    2.65182151793537    1.71416922193258
H         3.70194013159892    1.21368963413817   -4.32830400979438
H         5.70612131489487    3.53617576351595   -3.88812762075396
H         5.58683012840694    2.32662410018602   -5.12524823094664
H         5.35769778242357    1.82446819838629   -1.92153015125696
H         5.62104168110134    0.43055192631563   -2.88233776792306
H         4.45812629292253   -0.57789474408256   -1.32416615136869
