37
 energy: -49.858457457340 gnorm: 0.335656826399 xtb: 6.4.1 (79825abcba525fcdf90b791dcacef51065a7a4e7)
C         2.49549606061728   -1.24032349197088    0.61723669691696
C         2.97906213642482    0.19901462263543    0.56712761864274
C         2.97609002696136    0.94851474461255   -0.83005146070179
C         1.31180043208734    0.89618865719370   -1.33550200853040
C         1.05595834885757    1.95265995274402   -2.39789295322079
O         2.00030909063740    2.03498704202534   -3.39221976218749
C         3.21193193802198    2.72320786948495   -3.20564076972171
C         3.46211665435072    3.37697642261758   -1.81074088330538
C         3.36779204067838    2.37547907168911   -0.57043852320358
C         2.36318738086031    3.01099602448045    0.37681198947554
C         1.37550153831449    3.59487276257935    0.99616660252397
C         4.69263994607085    2.42436809916433    0.17306661531058
C         5.75827713021388    2.81221648228670    0.81651615646891
C         4.35124532625954    1.85781016625530   -3.56765032100945
N         5.57152208585505    2.72259570632602   -3.97053993748861
C         4.83349573637385    0.89017318122504   -2.51372697122531
N         3.73979542925335    0.19572264065440   -1.85126388442933
H         2.97820451537025   -1.83202409153447   -0.15786251935917
H         1.40532548020936   -1.29173526002353    0.50205451988918
H         2.73804809769297   -1.64953972764986    1.60770446017510
H         4.02076250555566    0.18580740089901    0.90568222638719
H         2.37411544894234    0.75765774572669    1.29026590839220
H         0.62045375192690    1.04128140008755   -0.50926204268670
H         1.20877417497421   -0.18820084584329   -1.64445198524793
H         0.91053759087274    2.93097017249815   -1.90252261353425
H         0.12267634979108    1.79578369094299   -2.97172770240873
H         3.17043396525262    3.52040489390732   -3.95274533690420
H         2.71781365160956    4.21016926268583   -1.64929895599050
H         4.50613110102810    3.86946814278464   -1.84396809916732
H         0.57356869258293    4.09294264568875    1.49177973114637
H         6.58898849782355    2.82230166621095    1.48832827635111
H         3.99880165722010    1.28297091796237   -4.42741346779355
H         6.32330109289142    2.07362332547727   -4.20383980541277
H         5.25003764602553    3.25865389292186   -4.78020368635577
H         5.32889664371164    1.51097531756283   -1.74345491707129
H         5.46886641928418    0.09330989947214   -2.92427859048346
H         3.07837745304105   -0.24047607792037   -2.52786567133053
