37
 energy: -49.858042490860 gnorm: 0.328453520332 xtb: 6.4.1 (79825abcba525fcdf90b791dcacef51065a7a4e7)
C         2.53506705641869   -1.28496329657230    0.44850948873189
C         2.85257929937487    0.19421375259909    0.58729893457905
C         2.94088534543411    0.93356813129461   -0.81249597570469
C         1.29856892093715    0.96542754980773   -1.38683026030731
C         1.04623562524053    2.11717021618086   -2.34603723874274
O         1.92429135391262    2.15594292390805   -3.40186709747747
C         3.21467722799237    2.68137093973448   -3.21393293819253
C         3.54804300610083    3.28600486120137   -1.88815684509282
C         3.33449308689325    2.39441663422332   -0.58059771911750
C         2.32869620035151    3.00663263542590    0.38063070249861
C         1.49200710942680    3.68353537153923    1.11669425949941
C         4.57365385483555    2.56403570004884    0.28318582299237
C         5.62144039137517    2.77900151191437    1.02881932379395
C         4.36718259115248    1.70178095364380   -3.62563081427413
N         5.46354748784267    2.60966555970456   -4.23635088005422
C         4.91946645648481    0.92768926402446   -2.45285384990148
N         3.86115643434618    0.23196629374560   -1.73644007139883
H         3.14523525638708   -1.82793509274614   -0.27035923584443
H         1.52466687351888   -1.38848984952775    0.03287055720460
H         2.59624447649954   -1.67792575859869    1.47279149823187
H         3.81758779719693    0.31628452559448    1.09107531120884
H         2.13007030152411    0.67129821546324    1.25911943370707
H         0.66779956369045    1.04630772739638   -0.50519936693324
H         1.15975251608708   -0.04913014631531   -1.86991180518677
H         0.94837500902527    3.04535404538754   -1.75229660906834
H         0.04030791956997    2.06668429448711   -2.80480994206117
H         3.28828675326907    3.53577848827991   -3.89215103775221
H         2.95726475005679    4.23396002315076   -1.72499180331084
H         4.64816424661209    3.62874532798271   -1.96484151499175
H         0.95010596503284    4.09190335579625    1.93911813559523
H         6.46103719625059    2.85075059499823    1.68566322131569
H         3.91361333755555    0.98581042063994   -4.31520350647792
H         6.23269653809935    1.96063211296401   -4.40347651661612
H         5.15801288814921    2.88561427588467   -5.17270921163585
H         5.48670053333463    1.54127922861150   -1.72767163400338
H         5.62747275926968    0.13620890180480   -2.73485657680272
H         3.37313413328422   -0.40759241696623   -2.39850647935744
