37
 energy: -49.852129617831 gnorm: 0.325301265176 xtb: 6.4.1 (79825abcba525fcdf90b791dcacef51065a7a4e7)
C         2.56436454633387   -1.34656728563713    0.38637965591023
C         2.94086925966081    0.11757159732978    0.53665543497467
C         2.96294096946749    0.91418721919678   -0.83403236195098
C         1.41480390363186    0.65189348531208   -1.58406686372080
C         1.06220517984852    1.84668663740251   -2.45493123485640
O         1.92376531668377    2.10766237684855   -3.49265358220439
C         3.09946217330258    2.81584946834039   -3.18819094597181
C         3.19594077031579    3.43892430303389   -1.81489588991422
C         3.23756612273058    2.39598533782902   -0.60626455273362
C         2.37346750859511    2.86304405990722    0.55372924436336
C         1.84739129003834    3.49024559165153    1.56856797271339
C         4.55532318604645    2.52360233100741    0.14048989611586
C         5.61130480866724    2.91425771032861    0.79800609944846
C         4.25324711017919    1.90619702161055   -3.51486967187375
N         5.20544370356264    2.77899220092824   -4.36973788737793
C         4.92570119014673    1.18757495229736   -2.36986790250103
N         4.03502033792865    0.29361493865005   -1.64542165196676
H         3.23532786217545   -1.81286151206186   -0.33214227839767
H         1.51577943847486   -1.39750988707778    0.06660454568628
H         2.65843143453551   -1.86326774233490    1.35151584675350
H         3.94245240448888    0.18086769723674    0.97569771073103
H         2.18679324779466    0.53113693786566    1.21584958777838
H         0.64438561073564    0.63306928439698   -0.81739488641222
H         1.56148881280550   -0.36197240021033   -2.06627490559008
H         0.96183008291133    2.71359288421581   -1.77520463135197
H         0.07112131718750    1.63846194708744   -2.90136938978874
H         3.20457088100330    3.57349054210840   -3.96943519375913
H         2.38166764572732    4.21472346829584   -1.71817106329768
H         4.18579521461027    4.03235468020737   -1.85547754356930
H         1.09314888561875    3.66862044580540    2.30075858224572
H         6.48634768840042    3.14755098918474    1.36491772287290
H         3.87703140244349    1.24060856159374   -4.29544837573765
H         5.77874218387343    3.38094845742513   -3.77834700764483
H         5.90263748664774    2.15912276983058   -4.78920031467345
H         5.45092262552023    1.89255306948228   -1.69809064255921
H         5.74451846423358    0.60795690383550   -2.81799825866651
H         3.62592165365713   -0.45768052792300   -2.24017069803514
