37
 energy: -49.853844287698 gnorm: 0.325241008733 xtb: 6.4.1 (79825abcba525fcdf90b791dcacef51065a7a4e7)
C         2.62290421311705   -1.32605983537449    0.35921316104410
C         2.79251587625973    0.17107429949125    0.55379615998211
C         2.99175938146212    0.97787019286140   -0.79648198101735
C         1.51322543378971    0.86874425156308   -1.70758407504073
C         1.04475631158620    2.07411147532836   -2.50626287565803
O         1.88157776273225    2.42186962504411   -3.53876275668665
C         3.17763744840931    2.84411373927537   -3.19462797025847
C         3.39084314365966    3.37003542817730   -1.72520431990245
C         3.29703841991420    2.40192642077170   -0.45863033420035
C         2.38814740479860    3.00194088991653    0.60169777490655
C         1.57452913176404    3.40075358875988    1.53925270642915
C         4.63297805200136    2.56396780139968    0.24806616883975
C         5.52992884943345    2.84281125920197    1.15236807581070
C         4.22799406417373    1.71322197791455   -3.58702225437844
N         5.34779603766900    2.37524512511716   -4.42786607822770
C         4.94388648540680    1.07683351448268   -2.41991086942965
N         4.10068361637454    0.30987591215661   -1.51543078987588
H         3.41384960356547   -1.82220699639565   -0.19948105837675
H         1.70998574081549   -1.54498058364421   -0.20914901845706
H         2.45278448834156   -1.79067404803095    1.34028844914348
H         3.69390613451893    0.38343444620094    1.13888767638367
H         1.88448479168433    0.58013772382499    1.01109068660284
H         0.67489792817467    0.57854053970305   -1.07935369032772
H         1.73641943119025    0.02230230487080   -2.42569657488794
H         0.89859475184597    2.92426521488870   -1.81379968248122
H         0.04245272915535    1.92966481439079   -2.95284373219870
H         3.44028319757707    3.64187023731646   -3.89463667882683
H         2.63763232913062    4.18322174991072   -1.51151705577050
H         4.39831663248523    3.93448611698095   -1.72190221857123
H         0.87409136510147    3.73902679972535    2.26847180036332
H         6.46429244773597    3.09918581567354    1.60264731238660
H         3.59240943913585    1.00640454419976   -4.12580854744252
H         6.11353318710304    1.72834360520534   -4.61742001885732
H         4.95219697475014    2.68834827416863   -5.31766032982071
H         5.50669625133364    1.86908671718587   -1.89102863391152
H         5.65620882013608    0.31999253042768   -2.77632108655308
H         3.55532594843391   -0.43499541316328   -1.99842640280215
