37
 energy: -49.851041027675 gnorm: 0.323249332642 xtb: 6.4.1 (79825abcba525fcdf90b791dcacef51065a7a4e7)
C         2.41815682823308   -1.28859005553229    0.50854553315331
C         2.93387165598158    0.13856847249949    0.58133310001427
C         2.99813705960524    0.90251153931575   -0.80651761048579
C         1.39805056353521    0.77015447209587   -1.47754886401998
C         1.07687874483830    1.91384531223525   -2.42574779585215
O         1.99948404302718    2.11037048905246   -3.42446657249274
C         3.20091672159130    2.79223705547688   -3.16349328542276
C         3.34901091973230    3.41341411778820   -1.74250700297587
C         3.31591442004709    2.41847651248731   -0.49380855164059
C         2.18694809097430    3.01937236712477    0.32762618727150
C         1.40467949586562    3.45654953913094    1.27470989601409
C         4.64511713849875    2.58876500530294    0.22357141499081
C         5.83382656668164    2.64120160691726    0.75672855900445
C         4.35555122327356    1.89417706272713   -3.57226716076843
N         5.50128514943647    2.84098205675008   -4.00827578124198
C         4.90897847468187    0.99731215100790   -2.49106744396760
N         3.93037846837465    0.22739443289252   -1.73816108095347
H         2.85347029879178   -1.81772101318941   -0.33668725069596
H         1.32339787302648   -1.29677331005052    0.43227061895885
H         2.61546206056591   -1.81526706175988    1.45247232305804
H         3.98116675632918    0.16192672686155    0.90158405931455
H         2.38295903291940    0.84068136416813    1.21733969502245
H         0.74885340901973    0.75698965776308   -0.60573789848970
H         1.38802866881087   -0.25362294972332   -1.96102010854770
H         0.84557795126590    2.89720313094930   -1.97504035232214
H         0.11963509069997    1.63405794141815   -2.90565964654203
H         3.14133152643231    3.57679688783609   -3.92265458960347
H         2.61914479192963    4.26260231105390   -1.59955380737204
H         4.37256380717221    3.94679217691023   -1.78079074013549
H         0.66697542538965    4.09856276663096    1.69946157780693
H         6.76504892337739    2.57167892312458    1.27586838213787
H         4.06058840841040    1.34713782185769   -4.47092970955537
H         6.15296302374091    2.17563943231103   -4.42468999226980
H         5.18509373757462    3.47389757976357   -4.74699558095789
H         5.41794858763401    1.59347581580120   -1.71025075754644
H         5.56372796114753    0.18963918778381   -2.84632385987245
H         3.38829457238212   -0.43341173909027   -2.33399099977757
