37
 energy: -49.857052343588 gnorm: 0.328085196262 xtb: 6.4.1 (79825abcba525fcdf90b791dcacef51065a7a4e7)
C         2.73111626630675   -1.37167428864723    0.39489257347085
C         2.94577454863505    0.12176305644867    0.57267894976409
C         3.05151412669941    0.91555811821769   -0.79574247197288
C         1.58887236986940    0.70641821377638   -1.71499092733830
C         1.08080938000585    1.93740819483398   -2.44765521193948
O         1.78260561883089    2.54324517606912   -3.46141330309982
C         3.09567212434050    2.93856268137067   -3.15146173565406
C         3.33053115809934    3.45510721263597   -1.70295767181719
C         3.27692633190792    2.39085931984371   -0.51352630946309
C         2.29425267911655    2.85187430544932    0.55052894116522
C         1.36028632584719    3.20495439755172    1.38902567167871
C         4.59977802670394    2.52323687701931    0.22332616732747
C         5.63193283285582    2.99772325615832    0.86329136571187
C         4.11542290668068    1.78696366242256   -3.59517437533366
N         5.06682928775364    2.59310326414755   -4.51398571829012
C         4.90546472903236    1.13576695635620   -2.48548163004667
N         4.21368456574997    0.32298452449519   -1.49648002210034
H         3.63593225693281   -1.81445463019944   -0.01638523909945
H         1.87512238230312   -1.62115449658929   -0.24496373427325
H         2.53023224487765   -1.87647149755109    1.34995340717890
H         3.87171605315219    0.30059687035728    1.12997968487579
H         2.16257326217225    0.55944693090698    1.20196441015363
H         0.88551778289609    0.52369568790542   -0.90654215293619
H         1.74807600289514   -0.15296567403216   -2.43476771814997
H         0.84224439446244    2.64863159081075   -1.63471125015545
H         0.09752669040724    1.70817089927212   -2.90099524467043
H         3.22889113051475    3.83813732514118   -3.75844490549571
H         2.62356048641773    4.29417042762512   -1.43757839910060
H         4.36701562468844    3.96144199440762   -1.64870501569679
H         0.64038047066765    3.44948774684962    2.13651567064617
H         6.60921427095936    3.01524445186912    1.29471761498882
H         3.57484884051733    1.06435527016383   -4.21118262219106
H         5.68467107565226    3.19275903819080   -3.96676534890078
H         5.64763811560277    1.93667421758969   -5.04126934502255
H         5.46320660202173    1.84919243892680   -1.84980524006281
H         5.71962542546534    0.56854269212765   -2.95732760173534
H         3.83409745401694   -0.54279437747720   -1.93451376150670
