37
 energy: -49.853355881641 gnorm: 0.332357157468 xtb: 6.4.1 (79825abcba525fcdf90b791dcacef51065a7a4e7)
C         2.71060314738373   -1.35638472257018    0.40315468723109
C         3.03850227578952    0.12267088818647    0.51681180069019
C         2.94276066773327    0.89648377062278   -0.86373729785913
C         1.25885977454085    0.89453502216665   -1.30254490446044
C         0.98630793713953    2.00238408217959   -2.30685922049618
O         1.96959030720953    2.01046926111670   -3.26620914974964
C         3.15233987282823    2.75911736735340   -3.13536943810833
C         3.41615286597327    3.37555316961753   -1.78468021613525
C         3.32305523752298    2.34502076162618   -0.56830041351737
C         2.25868885527051    3.07305560173152    0.23636430134214
C         1.35852748211867    3.59712204155180    1.02064701148232
C         4.62907624538389    2.58569067148608    0.17115821333678
C         5.72056471763903    2.63794804283230    0.88246569481366
C         4.33608192609211    1.88376405886157   -3.55226928985815
N         5.49984767043717    2.86581102415010   -3.83596365646557
C         4.82430485083223    0.91524804987632   -2.50190919152845
N         3.77708628115711    0.15486905966568   -1.83673529319147
H         3.43930144097058   -1.90278584929860   -0.19211033989486
H         1.72278998149872   -1.43846529412075   -0.06787602011853
H         2.67939574442216   -1.78965789774736    1.41241989616256
H         4.08040210617415    0.32103085697397    0.79073036232291
H         2.32984297917690    0.65655632287084    1.16003801574501
H         0.73881159426871    1.02125922892707   -0.35640776694587
H         1.08496429014105   -0.12067429324774   -1.77273156789009
H         0.84758466971616    2.99573884159666   -1.84034873466856
H         0.12340585867137    1.74593291538485   -2.95071057966304
H         3.12215359981035    3.56348709201573   -3.87529412803589
H         2.73378763142488    4.26506139376901   -1.65271973370350
H         4.47515663464148    3.83384992268018   -1.83043403707322
H         0.71350201527975    4.26863496343923    1.54008401297605
H         6.60753986919143    2.77348659387649    1.46248203063550
H         4.09374839870389    1.34981036137674   -4.47423310706303
H         6.32309726550866    2.27666263735498   -3.96217751247771
H         5.35299641189079    3.13409213322015   -4.81204047981392
H         5.46384377275326    1.39020675721831   -1.73409373027170
H         5.44106439102152    0.16696916914537   -3.01855802083018
H         3.09105146470960   -0.25714293383474   -2.50391996568799
