37
 energy: -49.857658377938 gnorm: 0.319931783969 xtb: 6.4.1 (79825abcba525fcdf90b791dcacef51065a7a4e7)
C         2.70037555465057   -1.31183370373951    0.43860908471892
C         3.03287567511849    0.16760360207913    0.53215161852305
C         2.96318099594186    0.92040137646684   -0.86151505922065
C         1.30840113211493    0.79184663494270   -1.38425343745846
C         0.99277927960911    1.96398415762089   -2.29898714922030
O         1.87118729383418    2.13429737947758   -3.34141443358886
C         3.10521254039505    2.79190206255819   -3.19571843592126
C         3.36149542534572    3.43084511311743   -1.83109543876930
C         3.32767174436350    2.41755896783702   -0.59725948702107
C         2.24391702227137    2.90720489552863    0.34937581310946
C         1.27177165922596    3.48547108437955    0.99789498779479
C         4.66500768664600    2.45981370448000    0.12396105627261
C         5.74156655144424    2.49094712331462    0.85886783854119
C         4.32279740124508    1.94406857799300   -3.61410629528626
N         5.40789850977512    2.98509337458085   -3.98568724279473
C         4.87634218620907    1.02593580416741   -2.55096867448914
N         3.87138876107964    0.26145190684404   -1.82782813452673
H         3.44624043802532   -1.73368149943431   -0.23193238298690
H         1.68353986053022   -1.51837301671770    0.08116163186223
H         2.73754455634227   -1.76369121893896    1.43948822805638
H         4.08034149158338    0.14241617351250    0.85170485191899
H         2.41192538254258    0.69344602920060    1.26623750980656
H         0.65632975022039    0.78093629434476   -0.51455895387626
H         1.18417069955950   -0.19373046513210   -1.92754863486587
H         0.86883300872369    2.85534029984578   -1.65575203975865
H         0.01823805056659    1.75184843770236   -2.77875751087714
H         3.08813010753010    3.65550848514756   -3.86601877841615
H         2.64458527949648    4.28995236633095   -1.68198028046562
H         4.45611013566858    3.79875774715941   -1.83988389737177
H         0.64631578062770    3.84432150576898    1.78328252559359
H         6.73656039847811    2.39891154205025    1.23706261578578
H         3.96153257663265    1.42261623753350   -4.50372674970635
H         5.82805493189636    3.28657139421062   -3.10628674272118
H         6.13244145159623    2.45882068118432   -4.47999543445414
H         5.41087910304989    1.61907868847820   -1.78507821742718
H         5.60847756455622    0.31731605830644   -2.96215655142747
H         3.37695329407135   -0.39847386237260   -2.46466766492660
