37
 energy: -49.851575578207 gnorm: 0.337506351232 xtb: 6.4.1 (79825abcba525fcdf90b791dcacef51065a7a4e7)
C         2.58634685193399   -1.29695173744594    0.39282421188106
C         2.73722094296886    0.20697628052627    0.54605215607789
C         3.01017320625096    0.95690797666705   -0.82397271923847
C         1.48328442068375    0.80522006207499   -1.64475255824678
C         1.09176696360760    2.02930291023653   -2.45629217563836
O         1.89993233614026    2.50485952897887   -3.46027250860970
C         3.21814157651159    2.88788417823539   -3.15678269217737
C         3.44653732262412    3.43760801544642   -1.79022582551370
C         3.29041563893107    2.40522813423084   -0.58189563526448
C         2.28422535162351    2.95661196429644    0.41507618390657
C         1.58353260430116    3.34768423834842    1.44275694025748
C         4.52001630941561    2.53066438347412    0.30284155893882
C         5.59898276165356    2.73100333324173    1.00692395007567
C         4.25468239619527    1.81107160839436   -3.51344701992877
N         5.23885248732064    2.50569684210943   -4.48717925199038
C         4.95878385799307    1.06522823949637   -2.40547589191041
N         4.13873494738923    0.27598196261541   -1.49888372618000
H         3.51970498545702   -1.70199429234719    0.00723509096539
H         1.78688763089214   -1.63716868957860   -0.27762293557065
H         2.33765259423456   -1.74806264432542    1.36337350179018
H         3.64179341447646    0.39144918957297    1.13567211991047
H         1.87715881613958    0.66437312333030    1.04810084486080
H         0.68814857667549    0.66192970169581   -0.91748955255379
H         1.62922392021776   -0.11037927564528   -2.29463301431848
H         0.74459251295724    2.82286300992340   -1.76827900334495
H         0.12925692155271    1.81863656204648   -2.96038133368490
H         3.40916471579108    3.62798698414469   -3.93855529897011
H         2.68501781405776    4.21386657771661   -1.48728779800602
H         4.42760883692691    4.03749431558886   -1.68414371957258
H         1.04490897532389    3.86256183389493    2.20537604447514
H         6.48066893721812    2.72290622291043    1.61031312938441
H         3.69048043353495    1.08015577158054   -4.09764523507903
H         6.19205212155026    2.14903304631494   -4.41670195806407
H         4.92332427155855    2.27819581020503   -5.43319787560660
H         5.50575266842851    1.80291109345513   -1.78839768275989
H         5.67657256276353    0.31506854425113   -2.76503038494411
H         3.67549138739297   -0.56543057734890   -1.90257095788044
