37
 energy: -49.607141055698 gnorm: 0.298390388858 xtb: 6.4.1 (79825abcba525fcdf90b791dcacef51065a7a4e7)
C         2.30202195332547   -1.27479002272718    0.87944280569412
C         3.36003246013940   -0.34863588436358    0.30420932701071
C         3.11960103533914    0.75483499978911   -0.80863090446446
C         1.42225422840874    0.95536054184306   -1.13555819352594
C         1.27519379348919    1.64116834697930   -2.48400254574659
O         1.76839384933329    2.91922290376567   -2.38108446877844
C         3.14624004246990    3.09121736525518   -2.60119199988817
C         4.18254997402735    3.34725783274651   -1.23766580847157
C         3.57401186801197    2.35601608963779   -0.14342394120677
C         2.47468412190452    3.34122683305368    0.21883883096481
C         1.49229844604467    4.17863023481571    0.40244010941769
C         4.50192118915677    1.74660749587395    0.89485226335561
C         5.61126011487247    1.14299769826433    0.57072458467960
C         3.76384936542625    2.34581145891220   -3.80360365076990
N         4.81448778681771    3.10282130580135   -4.65351214084210
C         4.33168051464922    1.07579187548242   -3.21686754261457
N         3.93185599464773    0.39643438051101   -1.99379232011847
H         1.23635424603050   -1.22910052137460    0.66459250156831
H         2.37887817818003   -1.19921443176226    1.97157990719343
H         2.54210376409929   -2.30579918896510    0.58499988911406
H         4.15133756334354   -1.08616176379994    0.13150981367979
H         3.77992057793721    0.23561061109382    1.13084202661480
H         1.30940429587507    1.44483640114556   -0.17152349872883
H         0.94087700405786   -0.05918342106864   -1.28027034388772
H         0.21955227158554    1.61551858089670   -2.81353694873427
H         1.89762131981241    0.99690892280123   -3.13394526567446
H         2.88005683663913    4.07015918702647   -3.00890491643856
H         4.30612679809782    4.35147562292024   -0.73712992992523
H         5.08977058658690    3.16187858106878   -1.92774087524202
H         0.77738773882298    4.55809409785910   -0.29161479079886
H         6.43166800680492    1.61802678817126    0.07798438222737
H         2.95826639100896    2.13214703883257   -4.51016784166237
H         5.54928413749342    3.28060139503708   -3.96850541265357
H         4.68831557289749    4.11143067308071   -4.76776504945368
H         5.43491993252493    1.11199191171871   -3.14144386038831
H         4.02605791224764    0.35027374744460   -3.98332556260445
H         4.72231274780800   -0.07629503914491   -1.50672142657145
