37
 energy: -49.813408733590 gnorm: 0.339447784514 xtb: 6.4.1 (79825abcba525fcdf90b791dcacef51065a7a4e7)
C         3.14112188821393   -1.33930508051450    0.41016457760267
C         3.05906963870136    0.16736805316060    0.58692649069931
C         2.89353530057262    0.90214925027994   -0.80826654998843
C         1.25459002649089    0.98915487213627   -1.38651091107041
C         0.97966076425136    2.00082411355897   -2.48705647373561
O         1.84839568010102    2.23061099483773   -3.52617124654857
C         3.11034290349885    2.76073582553075   -3.20531859931066
C         3.40176179594125    3.25033053116516   -1.87817197073142
C         3.36673385870453    2.33626852770019   -0.56916176201023
C         2.37188590484283    2.81307966845722    0.47645990501225
C         1.52507676337554    3.26117402246990    1.36085868696819
C         4.69420827524079    2.65008085092928    0.10146895647265
C         5.32230993170453    2.84183696603742    1.22785888701814
C         4.30187378296389    1.89169199089745   -3.68259919182245
N         5.37329883813811    2.96134165533235   -4.00993295086319
C         4.72102262543704    0.88632706212191   -2.63703865904922
N         3.53484369182577    0.32254513289193   -2.01059733709081
H         2.24383885940754   -1.67015097144983   -0.10879593100116
H         3.10608453711941   -1.77910212725701    1.41501926352784
H         3.97638287539737   -1.67147565612146   -0.22175123973226
H         3.95527651273138    0.65316105551347    0.98786502691850
H         2.15758770500197    0.25103769697577    1.20442250974302
H         0.56086571679841    1.06437187412479   -0.55298010666489
H         1.15547907894566   -0.00245880207048   -1.92395340391714
H         0.89773969110208    2.95499589716311   -1.93345463000382
H        -0.01439072065991    1.82808833526348   -2.94195840464840
H         3.10781169349355    3.69891672423521   -3.76676370443254
H         2.87123885736543    4.20378091707318   -1.58879583664180
H         4.52248468539143    3.51775191531422   -1.95617405779601
H         0.77747004439943    3.69935352040925    1.98205532670248
H         6.13554960090709    2.96137714380610    1.91040267922808
H         3.95089121644622    1.42594991922752   -4.60658237911262
H         6.00230514321569    3.01031854005245   -3.20823600823596
H         5.90680515368994    2.57152545359884   -4.79075325721726
H         5.44196349822726    1.27819192413521   -1.89486443651736
H         5.32191119447641    0.12570506345510   -3.15436517991002
H         3.60068755108074   -0.70714758643221   -2.15527120883147
