37
 energy: -49.852430363979 gnorm: 0.322222706303 xtb: 6.4.1 (79825abcba525fcdf90b791dcacef51065a7a4e7)
C         2.80456723706811   -1.47264496600521    0.18001700773257
C         3.04701722021985    0.00163626175448    0.45525171608999
C         2.94366522106858    0.95013392220799   -0.81105756619570
C         1.29936709102192    0.86161767793087   -1.37366459184086
C         0.94669512356330    1.80361886659753   -2.51318972676325
O         2.01100400230983    1.83653642141023   -3.38119025749885
C         3.07053516113509    2.71896838780848   -3.10696936070485
C         3.14869132227002    3.37184543426366   -1.74519129511243
C         3.21623378085713    2.40846540081068   -0.47334973625403
C         2.28650358274526    3.00130326044870    0.57285333361715
C         1.53446968020230    3.21272614325179    1.61677904403256
C         4.61526865174294    2.61307202003560    0.08454768595160
C         5.75516741546026    3.09901864699353    0.49016198223918
C         4.32704397445218    1.99562392087120   -3.53401487542261
N         5.36711172292044    3.00817206405241   -4.07462081297140
C         4.87585903776213    1.15146341245554   -2.40892097606893
N         3.87740525129062    0.31059638322498   -1.76601201527402
H         3.06412296082213   -1.75275181344939   -0.83883863815665
H         1.78847447592627   -1.80738326890483    0.42473678115971
H         3.50301660829773   -2.06317698743799    0.78891454901044
H         4.01876307059520    0.24567112082610    0.89807256248535
H         2.28387064821334    0.30691021224391    1.18008738336504
H         0.72796487823648    1.09593844282001   -0.47908205919220
H         1.07938603705308   -0.17702067291323   -1.76711573760053
H         0.69863194968021    2.81654603309566   -2.14430888761885
H         0.02140118298090    1.52317085177300   -3.05179143968259
H         2.96806585970699    3.50833857783131   -3.85650598900567
H         2.31204531302770    4.11759308271942   -1.61048916842956
H         4.10286154897479    4.02220443546397   -1.73067732710693
H         0.98203903859437    3.70461208518281    2.38467934274761
H         6.77696854467462    3.28232567290553    0.74281901617723
H         4.09362772090135    1.36623224895308   -4.39612411773623
H         5.97885527066208    3.31148745262490   -3.31663976983970
H         5.98802666678523    2.50536406705378   -4.71330286323989
H         5.38545031493488    1.67771993512330   -1.57976044188587
H         5.62845262962654    0.43030188930268   -2.75643870163146
H         3.26473204000665   -0.16201129485248   -2.46372725673776
