37
 energy: -49.855975969700 gnorm: 0.334242752640 xtb: 6.4.1 (79825abcba525fcdf90b791dcacef51065a7a4e7)
C         2.67148443035925   -1.35695934113279    0.43001787222447
C         3.03320050091334    0.11574364069439    0.52138903379172
C         2.90200372866344    0.94862209248719   -0.82135797794010
C         1.23879809802635    0.97349661020470   -1.33244155221948
C         1.02575579574470    2.00284332899181   -2.43031203600760
O         1.96576566344483    2.03695465420031   -3.43155113945248
C         3.18882219685749    2.69029194015528   -3.19966181469500
C         3.43716793630483    3.35564067159532   -1.84426735867899
C         3.30004941733131    2.39422866505240   -0.57654124711344
C         2.34432111545764    3.07997071269315    0.38613057979334
C         1.57356959849235    3.82086121236006    1.13249438049442
C         4.59986777881351    2.48818064574830    0.20579964049154
C         5.58669179209697    2.87746371302191    0.96387175575636
C         4.39169875983200    1.75085648860001   -3.57766809795986
N         5.58583339007841    2.68487065791623   -3.89533059142093
C         4.75222342159325    0.82040200562603   -2.44456720066694
N         3.57125566199832    0.17460808374558   -1.89178820529973
H         3.43549394477617   -1.94354738323987   -0.07604514521396
H         1.72740842918551   -1.63304188052414   -0.05668628188785
H         2.70658129161225   -1.78482998874551    1.44145780001347
H         4.08240311897099    0.21767505577940    0.81924330193471
H         2.38060636509159    0.56865899675059    1.27634611462998
H         0.64507418440040    1.17928806530173   -0.44540919161747
H         1.03191958703195   -0.09101105615139   -1.65800230233735
H         0.95800769421114    3.00439334315381   -1.96562114925173
H         0.10265728673719    1.75632603064120   -2.98890861221238
H         3.22054171913910    3.53944005633218   -3.88766745456647
H         2.81348297131143    4.27871422053480   -1.66202288115691
H         4.53393100634174    3.71621503860326   -1.81752411407537
H         0.99501703226994    4.47360664265684    1.74568485509021
H         6.52905551972549    3.02163979395715    1.44623932756830
H         4.17876840791760    1.18477281211166   -4.48764573847541
H         6.30513904008016    1.98246053932862   -4.06849254474781
H         5.29601084289801    3.18995358677852   -4.73625873152328
H         5.31966343403882    1.27549295775971   -1.61087634282910
H         5.50157818605697    0.12625955027902   -2.84937989221770
H         2.86632880819998   -0.03879278838134   -2.62872187799378
