37
 energy: -49.855132850507 gnorm: 0.320106925030 xtb: 6.4.1 (79825abcba525fcdf90b791dcacef51065a7a4e7)
C         2.46848266688661   -1.29705250486670    0.50601136655399
C         2.74619325967901    0.19369339246992    0.59871936749091
C         3.00564852160290    0.88888062997124   -0.80244668879290
C         1.51861284285286    0.84996832798696   -1.70538015987105
C         1.12056878284859    2.15736372425030   -2.37061657836996
O         1.88528190937823    2.55772842370373   -3.43934658040669
C         3.22428579469498    2.83551911165079   -3.11317104371523
C         3.47108881887724    3.38894879718256   -1.75318871982838
C         3.31219063265025    2.39177049083695   -0.51600206969268
C         2.25611374213876    2.97638309324563    0.40775415154294
C         1.54091345527665    3.81195136864409    1.10800391549401
C         4.58632908598082    2.50386214474668    0.30522789764036
C         5.75392088969239    2.81548956224386    0.79477256753491
C         4.19039796421806    1.67028626178378   -3.50884076842511
N         5.32964577361836    2.28342082916707   -4.36056248022711
C         4.92061848129184    0.91013057836018   -2.42783079938659
N         4.14325877646327    0.18327253715936   -1.43551606441579
H         3.36133259396541   -1.76171410580468    0.09272641506744
H         1.53677080695265   -1.41100860549020   -0.06259132011691
H         2.32181297334854   -1.72794520824014    1.50607900794717
H         3.68966282095354    0.40061006632574    1.11542430169045
H         1.89226445001381    0.68270656490469    1.08105050349784
H         0.75893950181938    0.66253105419003   -0.95076217680196
H         1.53562146577848   -0.08531888030125   -2.34327798583069
H         0.93999672413221    2.97948693000839   -1.65288611212643
H         0.09263211646777    1.95797903721810   -2.72909074323041
H         3.48114099172720    3.56690007724027   -3.88422078446191
H         2.90747778560544    4.34614485277938   -1.55224326127576
H         4.55136463822835    3.78751271611006   -1.66504527945380
H         0.72510868354814    4.19256495196658    1.67931656877891
H         6.59841688174323    2.89715962578418    1.44413466015254
H         3.55022330902562    0.97795029798473   -4.06083415043607
H         5.85113396432030    1.50092326803244   -4.75618008430823
H         4.95685996315532    2.80735196513968   -5.15604529899480
H         5.47955334854126    1.67802351943407   -1.86031988854134
H         5.58551061025716    0.20177979614486   -2.94105321956080
H         3.82056659019701   -0.74459648560720   -1.78259223566302
