37
 energy: -49.853742901756 gnorm: 0.324761694193 xtb: 6.4.1 (79825abcba525fcdf90b791dcacef51065a7a4e7)
C         2.67794365027464   -1.37339307273872    0.37846811565339
C         2.97885318758795    0.10082613229652    0.58864057680072
C         2.82701647352156    0.95463856758620   -0.73869456687971
C         1.17693177386204    1.07193991110431   -1.27863809178002
C         1.00378387648683    1.90889924777035   -2.53553115152348
O         2.01401426545954    1.87907243185666   -3.46601854982999
C         3.20610995513921    2.59258790368473   -3.25086025881469
C         3.33160079978034    3.30914237978975   -1.87906751291808
C         3.26872231872988    2.40075743386090   -0.56715016255300
C         2.32564098888790    3.15380828374359    0.35692123190147
C         1.78038293060791    4.06848595033299    1.10931340331917
C         4.61831183887148    2.38717474692164    0.13201764680671
C         5.74258738711879    2.63283036517690    0.74495658535273
C         4.46801850046409    1.75936714690624   -3.50793009135412
N         5.59656160162833    2.79575288986549   -3.73496423855327
C         4.75760373619440    0.84443868783006   -2.34230256675825
N         3.54826922984916    0.23317346431372   -1.81205344158273
H         3.26543231044687   -1.79600549756833   -0.43402905938006
H         1.60767503977076   -1.51833999482253    0.18379534062241
H         2.83297813211259   -1.82200508561300    1.36944106162014
H         4.03278767083984    0.21494733123045    0.86456043681052
H         2.38561143135993    0.57289927841497    1.37995769601288
H         0.55829503617601    1.49725382318152   -0.49245663667813
H         0.90045994754478   -0.01530301501419   -1.43171075728780
H         0.88544299822327    2.96712389560406   -2.23588821798220
H         0.07758495012972    1.64250861298715   -3.07968494337502
H         3.20058289790498    3.44275246661799   -3.93831940623141
H         2.55097940121756    4.12425862745377   -1.85723864877502
H         4.35766822275385    3.83865119333904   -1.89966773213686
H         0.99330916894921    4.33361852646130    1.77791038365268
H         6.72152599573844    2.81009857395013    1.13453299372973
H         4.25533547689551    1.25498105965051   -4.45355685507198
H         6.53318919085773    2.39161671698149   -3.72198857832104
H         5.37505816695256    3.13298780709959   -4.67489766689990
H         5.22400687762287    1.45202278214552   -1.54390037056533
H         5.43298275006713    0.03188916630533   -2.64374259275904
H         2.93482543355585   -0.04330880476644   -2.60752644744589
