37
 energy: -49.857037450940 gnorm: 0.312041017871 xtb: 6.4.1 (79825abcba525fcdf90b791dcacef51065a7a4e7)
C         2.67017969079195   -1.35650247277434    0.36391406968254
C         3.14026380454513    0.08047897834650    0.51273111331414
C         2.97052759092587    0.95285542886970   -0.80028739076323
C         1.30359296152981    0.86508221102377   -1.29192031724803
C         1.03258553994285    1.80105701466479   -2.45843968406622
O         1.99253256476367    1.91674633426440   -3.43433904708197
C         3.11075193467670    2.73672013530514   -3.20256769784784
C         3.22412073627236    3.40824104454242   -1.82804467494842
C         3.32586387666493    2.43794234027485   -0.56376117971514
C         2.44933455199116    2.95679063221573    0.56446249739170
C         1.41727866203628    3.02374772089315    1.35844797321563
C         4.67114814919717    2.58066035173718    0.12924231581791
C         5.65227237053027    3.16459969325818    0.75888216765313
C         4.32200570108838    1.94421282156398   -3.65758306768269
N         5.42456976152499    2.96052146314636   -4.04580810678244
C         4.80301319683700    1.03773701076466   -2.55007477726481
N         3.74822177116359    0.29609429523620   -1.87577485360111
H         2.98607976036167   -1.70484758560222   -0.61728859808978
H         1.58651559490531   -1.50598094720230    0.45172244669712
H         3.22715734001607   -1.91982431903987    1.12533393021702
H         4.21332132711193    0.08554632149701    0.73285650337088
H         2.65176665113861    0.51153924249486    1.39394005528929
H         0.57280495249529    1.04327203796701   -0.50713889000183
H         1.23912768636669   -0.23234405073617   -1.56296444679278
H         0.69174305655432    2.77238698571604   -2.05350222592240
H         0.16194472499859    1.36497572304003   -2.98449048861282
H         3.04671983389549    3.57991958025880   -3.89562252819349
H         2.31275079473704    4.06711567981449   -1.73032155320295
H         4.16646849456975    4.07515707542352   -1.85671552351009
H         1.00014382070449    3.52919631959788    2.19947266337421
H         6.56434772865855    3.23926275949430    1.31029726038620
H         4.09697750937127    1.43264101659493   -4.59646856177559
H         5.68252607328230    3.52785206703298   -3.23811993551987
H         6.23804913794632    2.44238186480297   -4.38646727875336
H         5.37092316503557    1.55791622257528   -1.75570191494585
H         5.45196186063541    0.23146991833571   -2.91890893227108
H         3.06431123841826    0.00114681779313   -2.60433878905567
