37
 energy: -49.854277353596 gnorm: 0.327133100335 xtb: 6.4.1 (79825abcba525fcdf90b791dcacef51065a7a4e7)
C         2.84423148545458   -1.38864122063277    0.36128189717598
C         3.16007108274641    0.09415730869581    0.45923672191624
C         3.00420400160888    0.89584716995148   -0.89975829842098
C         1.32031741982160    0.91407342829647   -1.33824651302524
C         0.96550386662598    1.88687950932199   -2.45090861819601
O         1.97106119449313    1.99853804475376   -3.38023563702704
C         3.11900246562173    2.76706119016723   -3.11929011578032
C         3.23988000684994    3.34958360207308   -1.72813217687512
C         3.32865230460444    2.30821620241889   -0.52068964311334
C         2.35219520171429    2.82952690238610    0.52102168422988
C         1.52725873127389    3.32057831122761    1.40328237928118
C         4.68496991385767    2.56913108440969    0.11392681506621
C         5.49194431972953    3.16790316129997    0.94477012922302
C         4.27733701358398    1.93447396723088   -3.61454080789800
N         5.41237216025382    2.84155076724687   -4.15134276213155
C         4.82351630470421    0.98486953595258   -2.57551201807655
N         3.78302637579996    0.18893964525324   -1.94212779554712
H         3.09776042164084   -1.71310878864950   -0.64586244336852
H         1.77010131358227   -1.56302670974437    0.50346513537338
H         3.41094179358710   -1.96697973308947    1.10403340335290
H         4.19704900499493    0.25029556019759    0.77582943712333
H         2.51531217889482    0.60092949278865    1.18617518497292
H         0.78083532770549    1.16388454189127   -0.42817063865217
H         1.01243632850036   -0.13119780420954   -1.64578899155595
H         0.74849731975582    2.89217708751782   -2.04358222056980
H         0.09433314339460    1.53740285528253   -3.03728683222258
H         3.06170195562369    3.62328410596384   -3.79679242707474
H         2.37301587476154    4.05993583473124   -1.59319868306897
H         4.18416948146290    4.01399684979243   -1.75028469390334
H         0.69949001103803    3.45753267383165    2.06119171046434
H         6.33908264271880    3.58661446868868    1.44332018007660
H         3.96546174419225    1.44724577124792   -4.54146684117097
H         5.68417686492091    3.60024831399671   -3.52583026028248
H         6.17666561167292    2.18456864090013   -4.32597384892380
H         5.43497996933067    1.45890040465569   -1.78459905749633
H         5.47058946930719    0.21034168163123   -3.00984201830145
H         3.17720027778250   -0.14971136565913   -2.71918845670736
