37
 energy: -49.854020255816 gnorm: 0.326470840405 xtb: 6.4.1 (79825abcba525fcdf90b791dcacef51065a7a4e7)
C         2.42704008440321   -1.22928355109672    0.46350188419184
C         2.76770361636421    0.24598218112051    0.58832437777363
C         3.04403367941532    1.00022728624130   -0.77865209009554
C         1.54537714938344    0.82729128430587   -1.64594666263911
C         1.13946892436995    2.11067506438199   -2.35193949202640
O         1.95220262268734    2.52941361874217   -3.37730958856543
C         3.31508556588286    2.81610439566753   -3.18535117208484
C         3.57981215442490    3.40203847565295   -1.76374145611868
C         3.35064506305015    2.47813718390842   -0.48150401506568
C         2.21729767992371    3.09739287290728    0.32002074252372
C         1.47472406800910    3.72867852118515    1.18610295375023
C         4.54054654119294    2.57582719086865    0.45924203477300
C         5.69784765580693    2.60946953278094    1.05887405403538
C         4.14764807496921    1.63413180351411   -3.56659401676009
N         5.14579382878387    2.13285499272414   -4.64094483379883
C         4.92572471964001    1.02556308163385   -2.42471746220912
N         4.13749221818350    0.27167829479438   -1.46157338769065
H         3.21497137209060   -1.73355678062285   -0.09216766037231
H         1.46853179264716   -1.32710131508331   -0.06192702429485
H         2.26365744862249   -1.75820432500675    1.41264082952040
H         3.66494235309406    0.33889526429856    1.20982507806917
H         2.03090962030746    0.83151574745943    1.14980159890175
H         0.78148997546058    0.52909775711259   -0.93233498726721
H         1.78331268959331    0.04236866096398   -2.42649022077269
H         1.06559805058004    2.87633789076607   -1.55699711255836
H         0.15192844418271    2.02544980881483   -2.84429325354507
H         3.46776995250210    3.67054749400405   -3.85020069008530
H         2.81234222914661    4.21984707994344   -1.63552380533511
H         4.66124199227985    3.80716314042542   -1.76239339206728
H         0.65428904672412    4.02519358200744    1.79910169974910
H         6.53457566714989    2.69313302656117    1.71796529391056
H         3.47139751308225    0.97799932027754   -4.11978902015120
H         6.03801850301960    1.63840841045188   -4.62599950473897
H         4.83632363473008    2.20768043074104   -5.61300211786887
H         5.48482431424489    1.77931442215383   -1.83871153317888
H         5.70189989386982    0.34411827898286   -2.79945030895465
H         3.77175066841505   -0.62397204149134   -1.84832477200104
