37
 energy: -49.855262000944 gnorm: 0.328891222358 xtb: 6.4.1 (79825abcba525fcdf90b791dcacef51065a7a4e7)
C         2.62633461272297   -1.31298176975897    0.50247799469733
C         2.81557655115497    0.19279866655653    0.57214896212782
C         3.07914631160929    0.94759351652832   -0.79704217190446
C         1.60669216000647    0.86650458482417   -1.72082866633731
C         1.14220096703743    2.13032546814417   -2.42599956421581
O         1.89026903633906    2.64986189501216   -3.45446343848966
C         3.23487140799462    2.91042183783474   -3.13722136952992
C         3.46095500830418    3.41696289486119   -1.75842962073011
C         3.33897231935071    2.42118276546124   -0.51593771281727
C         2.29086643122920    2.89139345604295    0.47943746501568
C         1.37131569674284    3.63568158404859    1.02761363498877
C         4.64784220970975    2.45005525501022    0.25635621027972
C         5.53032853657827    2.59004142653166    1.20591294425769
C         4.14879786884294    1.64629068531901   -3.49952492271740
N         5.06714709254464    2.22248532252641   -4.60581778029398
C         5.00317435683639    1.09815929818636   -2.38183354351205
N         4.24909208874396    0.29671335694821   -1.42981274937404
H         3.52773770455312   -1.79918222175844    0.13508524389377
H         1.81430995850220   -1.57119384263182   -0.18913207209594
H         2.34266164594102   -1.63422184873811    1.51423402646101
H         3.61713565244590    0.49353062370160    1.25552046368645
H         1.94266771759591    0.70671673708412    0.99034748525482
H         0.85331990580281    0.59600962255535   -0.98533744332037
H         1.67690732460358    0.01257017300931   -2.46098469232196
H         0.86142398808990    2.89465613837417   -1.67727212996955
H         0.14017972702555    1.90430053293423   -2.83804074386301
H         3.59949160930211    3.68040368238410   -3.82248809106020
H         2.78085664973571    4.30658131779351   -1.61593036336712
H         4.52923096219980    3.83124407701470   -1.61429116901827
H         0.73978735066334    4.07608145587195    1.76519220581889
H         6.39489945512666    2.68462522450196    1.82646559679038
H         3.58369530573071    0.83242558001955   -3.96010287844156
H         5.62842368570186    1.45016375774836   -4.96533640490535
H         4.46464337736671    2.70421919139878   -5.27752289674600
H         5.45643027373805    1.94058656506962   -1.82594527901483
H         5.78326084548398    0.46315483054299   -2.82395798618543
H         3.88235444321228   -0.57713993862896   -1.86272955021036
