37
 energy: -49.855195889379 gnorm: 0.315216622578 xtb: 6.4.1 (79825abcba525fcdf90b791dcacef51065a7a4e7)
C         2.87189270010554   -1.42448095498654    0.22198499333161
C         2.95273108468410    0.06524800462362    0.50871493579330
C         3.13889436631050    0.95004655569962   -0.79372254924644
C         1.72218200938735    0.64010670678000   -1.75546134892198
C         1.13889268587276    1.92891589809859   -2.31134418039298
O         1.78563238691386    2.67188726284623   -3.26893657080699
C         3.14183092974589    2.98033403018996   -3.06381305648418
C         3.44847486975157    3.43407053303328   -1.63782212848757
C         3.26584901845778    2.42979876824390   -0.40968124540362
C         2.11059845724304    2.98798472504032    0.40531591837480
C         1.41349834795946    3.59868042041512    1.32245151905043
C         4.45317157106771    2.65026402121645    0.51339630631831
C         5.58461888703989    2.83288920567295    1.13509661199856
C         4.01056409727294    1.78306387713942   -3.57059707471834
N         4.83646416420352    2.26615019804405   -4.78869646694162
C         4.92481679895634    1.16857307163330   -2.53803508270304
N         4.29133955499523    0.35688057707502   -1.50985166912380
H         3.76770022157902   -1.77869338027574   -0.28393821140170
H         2.03140489510128   -1.73924508821619   -0.40958906266591
H         2.79565646507509   -1.99909655037269    1.15543063301886
H         3.73809163031699    0.37656809186175    1.20601109148430
H         2.01763311405391    0.37480054019880    0.98906963052143
H         0.99413234227512    0.15433088999018   -1.11075199172883
H         1.92082425681837   -0.07653491702566   -2.60923598690577
H         0.82567278072710    2.54776797495118   -1.44963352465766
H         0.18359012375813    1.65623343704824   -2.79914850673517
H         3.29040090892630    3.81916070952131   -3.74916491874952
H         2.82663726799597    4.34528094511332   -1.39850154322007
H         4.52656321358276    3.84582786546727   -1.59539897537282
H         0.58375085310971    4.00846587345630    1.85197698518707
H         6.17087479655352    2.90106500841486    2.02569789783902
H         3.30335521410205    1.05525442562614   -3.97556419387802
H         5.31787635035782    3.09817951643779   -4.44703116983805
H         5.56800646534906    1.62611754899243   -5.10724015384491
H         5.60941671516187    1.95159429108259   -2.16075917118534
H         5.59615257547547    0.47216510787656   -3.05915296735455
H         3.98754371447930   -0.51896935844574   -1.98538086596690
