37
 energy: -49.853283845306 gnorm: 0.318245999565 xtb: 6.4.1 (79825abcba525fcdf90b791dcacef51065a7a4e7)
C         2.48034638871581   -1.25817676570492    0.52953791704947
C         2.88484369320563    0.20469670077336    0.59605430062724
C         3.01267628262930    1.00271086847086   -0.76802079380603
C         1.50065290053282    0.88646459575435   -1.62145516583444
C         1.18020014900907    2.15199867930116   -2.39991184839612
O         1.95015365005399    2.51525713255121   -3.47809401227893
C         3.29950780811649    2.81088109323369   -3.21667599057855
C         3.52264528134694    3.40684180253869   -1.75445276396985
C         3.30817950531380    2.49829866163034   -0.45876846329252
C         2.26124189436371    3.06472447176776    0.48647184654035
C         1.32941638090561    3.56960617761984    1.24596589457227
C         4.60235433639227    2.53293761599820    0.33767592002247
C         5.49367791862031    2.69101279712525    1.27607390477204
C         4.22620503062165    1.66336308332014   -3.63460747513156
N         5.22376929905700    2.13563891762933   -4.72137815473708
C         4.94969872916457    1.00024718057737   -2.48722986172226
N         4.08855889780903    0.32575876604694   -1.52764514636285
H         3.29455347222345   -1.83033472941224    0.08954026180833
H         1.52339460973350   -1.45804739268199    0.03086264860587
H         2.40887292307010   -1.52015106569024    1.59423356283004
H         3.85076251912213    0.17660735424019    1.11194685002366
H         2.13556494644223    0.80148370572482    1.12840592328171
H         0.70775664887427    0.65706276641625   -0.91408330312329
H         1.64559881222284    0.02013384340573   -2.33589676755781
H         1.15528874662109    2.98854288935265   -1.67658407827936
H         0.14350544939132    2.09313713913151   -2.78294081536337
H         3.54770100143384    3.64313888621465   -3.88087288654313
H         2.85437816466926    4.31176587147654   -1.66068575959086
H         4.63276644045482    3.72488154375732   -1.74445071967782
H         0.87004232485499    4.21294459494199    1.96143316032800
H         6.34721193946874    2.73863235012076    1.91695350953527
H         3.61120092025695    0.87969016418359   -4.08346833312086
H         5.91424299076392    1.40770458758481   -4.90610321286231
H         4.67586538992263    2.32962634285499   -5.56306467352326
H         5.55043403331228    1.82348127869406   -2.05648735985044
H         5.63145710612652    0.19463141739649   -2.79289043185158
H         3.62992773808544   -0.48304810619625   -1.99777485412235
