37
 energy: -49.603772899317 gnorm: 0.267540535891 xtb: 6.4.1 (79825abcba525fcdf90b791dcacef51065a7a4e7)
C         1.74947109863369    0.34746448961552    1.29061096276672
C         2.82230808930798   -0.06060627725152    0.29535204255074
C         2.86663941733380    0.83508521412029   -1.01218003420287
C         1.44885951427353    0.68631512595958   -2.01010074184806
C         1.23450538849569    1.51926166760882   -3.26330210508407
O         1.95188314709190    2.56815614064316   -3.78527088969623
C         3.11772584667540    3.13777651569035   -3.24413044557938
C         2.47852381823668    3.28130073427411   -1.59888407294251
C         3.18684789229817    2.44339135639978   -0.43852687825810
C         3.52932860498101    2.23851854164970    1.02814631438898
C         3.97196690720060    1.83537825105677    2.18641430982372
C         4.49788941267150    3.13348168289514   -0.09888334997749
C         5.41593494671650    4.01376130013766    0.18806002946632
C         4.30350604304405    1.98279349003955   -3.52314196594593
N         5.71053025870801    2.21694288333555   -2.91923273306874
C         3.91151890074748    0.55170449810447   -3.24390801826691
N         3.87643029426450    0.14522337421232   -1.84718286917191
H         1.93989455154815   -0.08491268420288    2.27075622498092
H         0.79098545387259    0.05921789953927    0.84049856536323
H         1.68875559529520    1.44019769373237    1.38840452377601
H         2.88810146950183   -1.10332629740075   -0.03379762386661
H         3.82815413676657    0.15890225859754    0.67093339366038
H         0.57953225402912    0.91793675048650   -1.39993178569947
H         1.58594681693781   -0.39593702366370   -2.31325490755259
H         0.23951004420613    1.95046703315917   -3.04495363597405
H         1.03435162762040    0.77565656345429   -4.05822454896322
H         3.32553083232931    3.83071201077944   -4.06392792019309
H         1.36392224069128    3.10484147159630   -1.62692419291816
H         2.44616977101955    4.24909733625681   -0.96964542719602
H         4.79800860322991    1.62808408555538    2.82788654602992
H         6.28346353390527    3.49211675597636    0.52981403367346
H         4.57573763693392    1.83638824386000   -4.57114236335963
H         5.73395158902104    2.35276922512123   -1.90840717884908
H         6.12881092138952    2.99128190979769   -3.44048734458252
H         4.73486487392770    0.14338306831132   -3.85995299009899
H         2.93407600260356    0.24857248603803   -3.64385300289427
H         4.81073089165416    0.09301535229868   -1.38904560200715
