37
 energy: -49.852009356076 gnorm: 0.327114281158 xtb: 6.4.1 (79825abcba525fcdf90b791dcacef51065a7a4e7)
C         2.85936786033861   -1.39980965710224    0.34495166945027
C         2.80448854360851    0.09675251610574    0.60055135587853
C         3.02898589295430    0.90590523257136   -0.74434323750803
C         1.59025448859136    0.72766848204938   -1.70682011401102
C         1.08974772230173    2.00723273816890   -2.35679671382103
O         1.85441517712137    2.50756788518139   -3.38256973949939
C         3.15121760781886    2.95566480738050   -3.07597202900424
C         3.30896790388514    3.44578692570070   -1.67444806265859
C         3.22658861039953    2.38918383520691   -0.47985708951922
C         2.12886153789708    2.92023350441213    0.42754430839279
C         1.36311980607347    3.40236087389043    1.36628195074871
C         4.50061467816722    2.54833341274210    0.33374049688806
C         5.74418989591543    2.81593357465222    0.62000452373359
C         4.11563955439179    1.86717840612667   -3.56779083008455
N         5.11652432521977    2.41645301030084   -4.61458428061105
C         4.89268475064666    1.17276960903100   -2.47525323100972
N         4.17056553632600    0.35657707839616   -1.51105778948573
H         3.83919643235720   -1.72007836318266   -0.00327206925500
H         2.10988896589373   -1.76894924046383   -0.36666575086951
H         2.82094545376429   -1.95658602485585    1.29143970594001
H         3.58926737535081    0.38588700672267    1.30798102988010
H         1.88042785279756    0.54035621778564    0.98823578325424
H         0.79301596521731    0.39902047652519   -1.04493957905379
H         1.71802625495065   -0.09065381540607   -2.47882275980468
H         0.91130629147150    2.80752010259532   -1.61428163225787
H         0.15985699638117    1.72245628347455   -2.88511231957090
H         3.26128874485721    3.85173488079182   -3.69269982967056
H         2.51686676228197    4.19397124744320   -1.37939421989224
H         4.31505557734188    4.00476476278526   -1.57984531929127
H         0.78969290219094    3.76750994203377    2.18765273358260
H         6.66598516827273    2.76801762791747    1.15806787568129
H         3.55248695548672    1.05527522643845   -4.03418309729647
H         5.59128261669824    3.16710913762519   -4.11270222467242
H         5.87491888491280    1.75618715981297   -4.80207483822181
H         5.41328643258752    1.95688076885887   -1.89363482812146
H         5.61832079626417    0.48925304412403   -2.93731065307339
H         3.92214092286897   -0.56604052305487   -1.92650334812665
