37
 energy: -49.851877933069 gnorm: 0.326015538565 xtb: 6.4.1 (79825abcba525fcdf90b791dcacef51065a7a4e7)
C         2.53166342197846   -1.32297870069887    0.33241771661407
C         2.77207276976611    0.15358165525126    0.59701956513439
C         3.02538848294668    0.92089576585549   -0.76713909537732
C         1.56141290919911    0.79239965409908   -1.69898801011395
C         1.01533328015304    2.06464829573535   -2.32623733988897
O         1.83243346905634    2.51585483141414   -3.33421641683488
C         3.17764668581123    2.86062754095247   -3.11507552086407
C         3.47363893942556    3.37003136197897   -1.73338876236738
C         3.35213292429030    2.35911440016107   -0.50313381900751
C         2.32571624788162    2.97026641292004    0.43673742211681
C         1.55094559786507    3.59405617303350    1.27973935860774
C         4.68374730728697    2.49624166914990    0.21687400045007
C         5.55024655297642    2.87242893260030    1.11559450925595
C         4.18592696401643    1.73365706758829   -3.60061409345091
N         5.31483799759857    2.47697314202353   -4.35711296000782
C         4.90993514040366    1.01544160687910   -2.48723188930890
N         4.09562373759765    0.25922203913208   -1.54790864305280
H         3.41122951765926   -1.83754908804707   -0.04899629291288
H         1.74159077112809   -1.47307486314564   -0.41433414750665
H         2.25833121491922   -1.78607654592223    1.29061691229741
H         3.59674821688106    0.25037115309089    1.31149525552968
H         1.86524717435598    0.62385289617180    0.99386200139125
H         0.81412080953874    0.27722774990970   -1.10079318881893
H         1.74364687995032    0.05967324409238   -2.54271064226053
H         0.77624963500509    2.87217016235316   -1.60903632073940
H         0.07226073434473    1.84080627816184   -2.86048512429516
H         3.32233744250337    3.72900360584452   -3.76345658678439
H         2.85751038451828    4.27087853691284   -1.44508208295886
H         4.57126726754951    3.72642439063335   -1.77598424861514
H         0.77994145447031    4.05325942900758    1.85548868837803
H         6.54411219845184    2.99123221782037    1.48926746879440
H         3.51053382074156    1.16347333817080   -4.24294110243927
H         6.15161338171397    1.91836070990571   -4.18822020671611
H         5.03737517228030    2.69719205601911   -5.31668787692465
H         5.52806190452692    1.76355315229472   -1.95583297331399
H         5.64088287310552    0.29250477404282   -2.87493973591693
H         3.84204171607032   -0.64953033405214   -1.98994746704503
