37
 energy: -49.852717283670 gnorm: 0.318977246762 xtb: 6.4.1 (79825abcba525fcdf90b791dcacef51065a7a4e7)
C         2.71542136163308   -1.31438382839307    0.42885173974058
C         2.89810362288992    0.18832221438496    0.55747140388589
C         3.00194705540327    0.98221561926563   -0.81103816834402
C         1.48383324530407    0.87284515032431   -1.65451116226519
C         1.02120701504872    2.15591558767541   -2.32530808619198
O         1.84541799725205    2.55466522083934   -3.34948427369751
C         3.18751044197745    2.90188160425557   -3.11556504620049
C         3.55597957808615    3.50471644991439   -1.72665594717167
C         3.33390826798559    2.48372269499089   -0.51897217434652
C         2.12457485801942    2.89808075564880    0.30335133470607
C         1.33895926948717    3.52459024719119    1.13421205218115
C         4.52999453120927    2.45171129660409    0.41845242969741
C         5.68178200599580    2.40961095203967    1.02808301650089
C         4.17553722787397    1.76433352108527   -3.54607049786285
N         5.11398044392885    2.41194311032564   -4.59448625201657
C         4.94152004443170    1.00205900626244   -2.49162793950611
N         4.08838217651281    0.29645980470124   -1.54739025673934
H         3.66238280396358   -1.76466515110425    0.13832359299332
H         1.92079347848930   -1.60434733189877   -0.27034043138248
H         2.48330024735315   -1.76607761185824    1.40322760283428
H         3.78856215528511    0.30333733205634    1.18499705035926
H         2.04045521387911    0.58878728928798    1.10977435525851
H         0.74718360839640    0.55467648164251   -0.92116224933228
H         1.62345641628108    0.15144791036184   -2.51593816694325
H         0.76813748122725    2.95721455205511   -1.60592943963422
H         0.11021694954399    1.92791521423589   -2.91099119244877
H         3.32003839875316    3.69668663953904   -3.85457229133416
H         2.95112169491207    4.41654585128290   -1.44921253434940
H         4.61428596398350    3.94425207912397   -1.86953464905189
H         0.54021065346461    3.76374918049138    1.79874642521386
H         6.61525689060053    2.27981406876767    1.53136425222699
H         3.52551780523557    1.08568558856547   -4.10353000641446
H         5.59311002733007    3.21232103825439   -4.18145396551475
H         5.89626895629458    1.76942532533088   -4.74098399972897
H         5.57881222316838    1.65902791566251   -1.87002765001667
H         5.60850368510533    0.31140911398589   -3.02583312102598
H         3.73117038188484   -0.59685015132350   -1.94730286673752
