37
 energy: -49.852946018845 gnorm: 0.329764248503 xtb: 6.4.1 (79825abcba525fcdf90b791dcacef51065a7a4e7)
C         2.62929829288788   -1.29300092985908    0.37512721507932
C         2.70569062251295    0.21296065532421    0.56028982870258
C         3.05457790532863    0.99153997178370   -0.77610852429880
C         1.60186777300445    0.87834766958330   -1.72737026822348
C         0.99800245507034    2.08020559059544   -2.43528658015586
O         1.81987020589536    2.56364441487620   -3.42426695381503
C         3.16746511443288    2.86321436036754   -3.15830574927139
C         3.40559911355977    3.46202625479011   -1.75097583183635
C         3.33548877711463    2.47411322970046   -0.49823627655118
C         2.26393870796385    2.94772069107374    0.47020175324292
C         1.41862057044731    3.47981562868564    1.30826364245523
C         4.59391756098527    2.52957181997141    0.35246536457728
C         5.71406265386156    2.45814328759532    1.01594798985826
C         4.22863470332892    1.72934049756400   -3.52165828658914
N         5.31085727694004    2.34145589211480   -4.44543233272284
C         4.97813309259672    1.09893759479380   -2.37253446178535
N         4.19995392250885    0.31429075796228   -1.42592695223038
H         3.58452250258368   -1.64527563454819   -0.00872834178323
H         1.79705269556662   -1.62370189675204   -0.25921191694775
H         2.50271162911526   -1.81539555606841    1.33345674052941
H         3.54030394800260    0.49350697722618    1.21193978869745
H         1.78595158727603    0.63460030294543    0.98132632877099
H         0.79821480122060    0.41447785213190   -1.16110945308882
H         1.90923630739012    0.13405156161871   -2.52330555441157
H         0.79828897396752    2.94842874820778   -1.77959386980320
H         0.03328294364301    1.77842793392709   -2.88601740988654
H         3.39059296178386    3.66002331043938   -3.87295242604130
H         2.64543715770072    4.26819405272500   -1.53531860137338
H         4.46297017188676    3.92366898052122   -1.70126927214955
H         0.76883326512600    4.04059917233877    1.94079863401778
H         6.52436017809451    2.45388962747006    1.71230594867286
H         3.69795921491071    0.91274242000810   -4.01703740960114
H         5.69619996873901    1.52789344968575   -4.92542485041916
H         4.81931068077644    2.96662063798348   -5.08871842383722
H         5.59543566304291    1.80847634116239   -1.78975775257157
H         5.63104338013781    0.43023420178385   -2.95027450296576
H         3.84383912231415   -0.53481692340905   -1.91350405782276
