37
 energy: -49.854623061919 gnorm: 0.312251667187 xtb: 6.4.1 (79825abcba525fcdf90b791dcacef51065a7a4e7)
C         2.76906790253839   -1.45316201254588    0.14010205559475
C         2.95787534065875    0.01737524638376    0.47163365071263
C         3.10582150092348    0.88730536119933   -0.84563707861248
C         1.61716118517222    0.70432877422215   -1.72795684099433
C         1.03066491393895    2.01073349794184   -2.23745670370809
O         1.74242302722641    2.59436872570608   -3.25727638621652
C         3.10459126902912    2.87705314362058   -3.05460237992007
C         3.46950582226590    3.37113286174487   -1.64317973144230
C         3.23598086121922    2.38515167247853   -0.40885756913120
C         2.04198962077263    2.86759568973566    0.39862524734841
C         1.46692853311279    3.62421101357701    1.29130298004956
C         4.45415324174722    2.52938391665636    0.48873092566019
C         5.47141882727031    3.06022871389440    1.10793263592251
C         4.09705223961038    1.77047856657993   -3.52472170628432
N         4.88767218727959    2.32698501273413   -4.73487463751518
C         5.03599398320508    1.25337943673439   -2.46140702487097
N         4.36893202890668    0.42712424926654   -1.46660555213466
H         3.65836586394828   -1.81955979461261   -0.36861952631699
H         1.95808434765459   -1.73976087608251   -0.54147608604952
H         2.63866373890743   -2.04944066841322    1.05375534148960
H         3.87550876235938    0.16646546132868    1.05099046920118
H         2.13891300888068    0.43487516601155    1.06826262734115
H         0.89416070605738    0.12965472664020   -1.15462913090160
H         1.79794187286963    0.08373175013453   -2.65754963804119
H         0.81603710867509    2.66972543888871   -1.37531148217944
H         0.06533909455397    1.77282581780056   -2.72372593835912
H         3.26494564728100    3.73715234894059   -3.71028999010916
H         2.86045705290067    4.28740322220707   -1.39065450952913
H         4.57328237905797    3.71065158444341   -1.64793947346116
H         0.76991455545545    4.04441296120929    1.98007296545478
H         6.43717356472780    3.28436608561679    1.50617230370209
H         3.48372052531017    1.00648133998288   -4.00843837505343
H         5.55850974576231    3.02167596355483   -4.40601736172275
H         5.39265408974565    1.56727857516630   -5.19758990370500
H         5.64567184292469    2.07092894911330   -2.03240575359233
H         5.71803670140659    0.51545829858844   -2.90585021675343
H         4.19000683394146   -0.56176534724240   -1.74158951462817
