37
 energy: -49.854291567687 gnorm: 0.328298295588 xtb: 6.4.1 (79825abcba525fcdf90b791dcacef51065a7a4e7)
C         2.63660941208344   -1.39093905565696    0.47722313904612
C         3.01584391306616    0.08003137601790    0.49886707159206
C         3.16075871643970    0.85444614578671   -0.87705084381779
C         1.66400283885102    0.59405800436957   -1.72557779671720
C         1.08771368918380    1.90592056936490   -2.23269584570271
O         1.75878687861250    2.41801486634522   -3.31652336035069
C         3.06024402507035    2.90959848486309   -3.11392919954254
C         3.35982820904893    3.37519245594899   -1.73790552415273
C         3.31379542546707    2.34324906314153   -0.52003120286875
C         2.28938366229127    2.85206109353426    0.48101159705176
C         1.31790940199055    3.34420239267402    1.19799854234724
C         4.56694128485137    2.56578595068295    0.31094099255884
C         5.47013687896242    2.87402451231266    1.19934575117697
C         4.12339091950244    1.91414725398061   -3.68807898622731
N         5.00910040707472    2.74686913371989   -4.64794481953055
C         4.93180206536792    1.20639779713434   -2.62732296080847
N         4.33038579174282    0.33959908681393   -1.62519636308918
H         1.90370553138339   -1.63453290515377   -0.28920349474405
H         2.15364793442214   -1.64766379692684    1.42865501599050
H         3.52598681412275   -2.03207756164842    0.40466239816672
H         3.96380310023391    0.16114848745599    1.04175445015178
H         2.30195055578368    0.62807431414702    1.12414847391166
H         0.98234169218839    0.05328604308615   -1.07397332750575
H         1.92007669529111   -0.09986690755867   -2.58281725488293
H         1.12215968062611    2.57355369177183   -1.35138469528301
H         0.01466788198571    1.88414968252362   -2.50290038811660
H         3.10440752614359    3.77263612072162   -3.78372471763484
H         2.62621740056140    4.19987162744578   -1.50130415176304
H         4.39359442317809    3.88762865262572   -1.78643246391740
H         0.66407636114012    3.69019250254699    1.96584973214818
H         6.26189494009328    3.11381983918938    1.87546110565528
H         3.63477305052201    1.19438561986895   -4.34917288115775
H         5.42181024878231    3.53508294638207   -4.14879030741110
H         5.67364630413101    2.11485955893270   -5.10094444289325
H         5.51785549233539    1.88585959820070   -1.98001358312769
H         5.74914744030036    0.61487126697689   -3.06238908071554
H         4.02510378986667   -0.58880207534610   -1.98631576264008
