37
 energy: -49.854711337921 gnorm: 0.330417635762 xtb: 6.4.1 (79825abcba525fcdf90b791dcacef51065a7a4e7)
C         2.45300015300648   -1.32089507635217    0.55605067594659
C         2.72530863534791    0.17361052504660    0.57455405431099
C         2.98782282239399    0.94760141235036   -0.78408241413052
C         1.48275821203981    0.92145966791506   -1.65710890754454
C         1.08126807727966    2.16888826575421   -2.42716660234859
O         1.89291579179200    2.60842536820829   -3.44466205626933
C         3.26774906636342    2.81265504021898   -3.23344354363147
C         3.56209315558684    3.33017391444891   -1.80540945838855
C         3.35708121718099    2.38454389114249   -0.53497725578529
C         2.27955900056157    3.02142605242931    0.32741642074595
C         1.63736771142011    3.70399801376376    1.23390490766491
C         4.59072619060051    2.65650774740146    0.31034383898252
C         5.68226340297376    2.74390412937547    1.01811826096986
C         4.13205547995767    1.61504231891812   -3.57097692273946
N         5.27484753793295    2.22904619832027   -4.41730723155778
C         4.88570600340909    0.99491416971472   -2.41898161593816
N         4.10533742027812    0.24020774505211   -1.45009444856096
H         3.26225599342369   -1.78442164637006   -0.00443478365910
H         1.48197525122118   -1.46137125706081    0.06436065077425
H         2.46798494426330   -1.72694978868681    1.57693795415006
H         3.63622281790013    0.26937099774096    1.17538564126490
H         1.93693140252860    0.65858029100912    1.16127143467361
H         0.73486985823132    0.68021152043671   -0.90601173768514
H         1.60600175249637    0.02800256408314   -2.34158719429825
H         0.84118527385510    2.95066709124236   -1.68230958819912
H         0.14537773712347    2.00217344742021   -2.99393570076674
H         3.61983554636095    3.60069202071045   -3.90459422695582
H         2.93535087007409    4.25923037152631   -1.67009880353284
H         4.64467713101058    3.72986551158360   -1.84873233815080
H         0.96197478855988    4.06609293644587    1.97521047659723
H         6.47654886426815    3.06400626445947    1.65699214758912
H         3.51459297503253    0.87674315332583   -4.08818458588095
H         5.99586854498336    1.52168858111821   -4.56062353790020
H         4.93374853461270    2.35041466882692   -5.37396138797283
H         5.41049559819935    1.75473833866118   -1.80955606492883
H         5.57723022869905    0.27607748890959   -2.87975021145928
H         3.71919388218329   -0.58857495211722   -1.94963968982726
