37
 energy: -49.829189483026 gnorm: 0.304682263899 xtb: 6.4.1 (79825abcba525fcdf90b791dcacef51065a7a4e7)
C         2.57265186431678   -1.39492280262651    0.17264981518335
C         2.90891545794988    0.05643834256631    0.47017107388947
C         3.02429682279350    0.97054355178899   -0.82016510446021
C         1.51308832480309    0.75235325426824   -1.65486265505854
C         0.93538167118227    1.93653769256278   -2.41263803581509
O         1.76791368075932    2.42988498682666   -3.38770766226755
C         3.10063242124023    2.76461064515392   -3.09053928489407
C         3.35189953018403    3.38120286930075   -1.69188050836443
C         3.33637649309761    2.43454421028931   -0.40586323277324
C         2.21862622571296    2.94451191681013    0.48910219177592
C         1.32469236394186    3.52740333396148    1.23820523217297
C         4.64566281107721    2.60433629711059    0.34736446481213
C         5.93476880189999    2.58095433596375    0.54151726046382
C         4.22489385120539    1.75522012050716   -3.52876112647473
N         5.12851197032261    2.66906197452199   -4.39340949664826
C         4.98369068956302    1.25569744225516   -2.32279857644007
N         4.10958418042798    0.33973349402764   -1.60568832501534
H         1.72859008899277   -1.38155837564703   -0.51384633077582
H         2.15713908492511   -1.89368473756479    1.05750441375131
H         3.36338521567133   -2.06614923589728   -0.18999553583910
H         3.83781075429250    0.11852765658315    1.04743336929227
H         2.17835285847556    0.45623401186237    1.18250058390221
H         0.68407264368380    0.51231223311625   -0.99395575844875
H         1.70484676320261   -0.06992567973895   -2.40921744430092
H         0.70195269221127    2.77493090466258   -1.72982210890268
H         0.09380871103344    1.59024107105013   -3.04251530429238
H         3.23148332114713    3.56856722886175   -3.81988300722562
H         2.56436544312862    4.14785893844805   -1.43441342338999
H         4.27032698049315    4.07459924713158   -1.59538807704811
H         0.72326603217600    3.35094301739826    2.10073082844718
H         6.88549874385804    2.80086719220543    0.97656382839252
H         3.79728771339445    0.97855103493978   -4.16734353479934
H         5.33200358835943    3.43309691269315   -3.74873327594433
H         5.97031971377721    2.18199072533651   -4.71024909640566
H         5.36043756050514    2.11824659010352   -1.74124277373322
H         5.80499286929247    0.65111364058297   -2.73167604330751
H         4.65759740304052   -0.23992421336202   -0.93545591048431
