37
 energy: -49.854424075077 gnorm: 0.325992665632 xtb: 6.4.1 (79825abcba525fcdf90b791dcacef51065a7a4e7)
C         3.12454168049328   -1.40660372778293    0.42193314718870
C         2.79075288357564    0.07261779251450    0.51429120304660
C         3.05479485305343    0.90458871595504   -0.80933067154552
C         1.59899718430006    0.80944228856303   -1.75784447548087
C         1.10951200575430    2.11159927614136   -2.37025996258443
O         1.81757921739140    2.68878197011825   -3.39630228027904
C         3.16099547488781    2.98371980869943   -3.10521125921965
C         3.41130922257247    3.46675553146452   -1.65534074740678
C         3.27582483464910    2.40698373184757   -0.46842384208303
C         2.16028243304070    2.83412525008643    0.47152887301419
C         1.29238987157340    3.44753875140536    1.22685788681363
C         4.53400479400504    2.53378255984803    0.37497241905947
C         5.59365555459496    2.49696337334607    1.13380104994907
C         4.03793142812280    1.81326763263518   -3.56266477311117
N         4.95540011346444    2.39404560160862   -4.66729032303901
C         4.89808717846287    1.14327629705767   -2.51821041055597
N         4.19419601638709    0.31617667044926   -1.54983925441285
H         4.11899238952298   -1.56513347672892    0.00982642206654
H         2.41275634323570   -1.95407949263771   -0.20895029588404
H         3.13101330546758   -1.83734654085096    1.43274200911224
H         3.47676510676164    0.48762263948998    1.26067683982835
H         1.75892623171928    0.16955720949958    0.87053287622839
H         0.86441193269909    0.44910749997461   -1.04214344459741
H         1.68128742912106    0.04740250560547   -2.59120440782190
H         0.86817051241760    2.93670979922474   -1.67414448033318
H         0.11946521407377    1.89748430309543   -2.81621276194180
H         3.35158525144771    3.85412445117677   -3.73883710088034
H         2.69995475298613    4.31754912053051   -1.44466124722389
H         4.49759603094065    3.84427097267431   -1.55007265601382
H         0.50744922847000    3.92443392759862    1.76837560309229
H         6.56105112536082    2.56325281138834    1.58242798979087
H         3.33927086303425    1.07965713632016   -3.97197935173292
H         5.38961637543944    3.21682794048839   -4.24866027686371
H         5.70924409353082    1.80684881905694   -5.03223580249256
H         5.44562922212789    1.84326689449100   -1.85916013720966
H         5.53900819664144    0.40920455656916   -3.02575208850124
H         3.78416921385720   -0.51997452060306   -2.01702470611520
