37
 energy: -49.856785920222 gnorm: 0.321678102160 xtb: 6.4.1 (79825abcba525fcdf90b791dcacef51065a7a4e7)
C         2.44594159506140   -1.26010961374804    0.52697154744067
C         2.86061767492759    0.19956768988622    0.60064104946625
C         2.88740827485158    0.96028170309321   -0.79020944565873
C         1.27785899631511    0.96156778675512   -1.45159253973368
C         1.02759597168335    1.92010137295209   -2.60434709805779
O         2.04017171798108    1.95513799791611   -3.53209958068107
C         3.17878705433147    2.70296144791843   -3.18452979558051
C         3.28672028208033    3.29284189310050   -1.80004850655125
C         3.31812100338942    2.36731429337694   -0.49902710824164
C         2.43065422233450    3.03288192692911    0.54011594205551
C         1.70950679916361    3.82438770171105    1.28409210232919
C         4.68987806696151    2.41468620922366    0.15400462403381
C         5.85202263837713    2.78252845129317    0.61676630536285
C         4.39350786159110    1.81624999175283   -3.55706930085118
N         5.59634650006255    2.68450503082802   -4.00267208393190
C         4.81961992538742    0.95707377430799   -2.39092781866000
N         3.74842462367406    0.21848322475927   -1.73952634330434
H         3.16702766596000   -1.86268846361136   -0.02150767269085
H         1.46549710613488   -1.36324110072813    0.04481545374129
H         2.44562021689442   -1.68144617015181    1.54175783588725
H         3.83027133343514    0.31717483762791    1.09649753422055
H         2.06352280014036    0.69358027217687    1.16770625636007
H         0.54851262016831    1.10064053852461   -0.65761694148305
H         1.24612082190457   -0.11205675056988   -1.80976586810732
H         0.82742553941355    2.91404102172696   -2.16202862799263
H         0.11929196448869    1.63318663887871   -3.16788550536140
H         3.22800182191964    3.57582848152903   -3.84110535107907
H         2.50533089074458    4.09518192000633   -1.65883284956149
H         4.32646804959650    3.79529785335179   -1.80904267181614
H         1.15010523269043    4.15808443096622    2.12820029884287
H         6.80581284801217    2.76218743321728    1.09779133308568
H         3.99631884797106    1.15363559844101   -4.32974803293369
H         6.38719839715938    2.07673553312524   -4.21699699945439
H         5.25357451193089    3.23947819500287   -4.79056684967926
H         5.20538924105441    1.60006240525001   -1.57736525534517
H         5.62335926926344    0.26077774500291   -2.66735960631859
H         3.08189152859534   -0.18999401073391   -2.42830280965809
