37
 energy: -49.850724586965 gnorm: 0.326728316801 xtb: 6.4.1 (79825abcba525fcdf90b791dcacef51065a7a4e7)
C         2.48087568476631   -1.41948881154171    0.34482597290990
C         3.04725041165758   -0.01140947809968    0.41245390224701
C         2.94082158098242    0.91844343102532   -0.86735667637808
C         1.29883790209178    0.72831044178272   -1.41124745181308
C         0.95500566429085    1.77402788176607   -2.45934845691996
O         1.98146351969639    1.90710710310116   -3.36264025247571
C         3.08180307659122    2.76461710029988   -3.18822977046404
C         3.14157472559109    3.37798830853345   -1.80983382534883
C         3.29211755893285    2.35581347058225   -0.59215590226184
C         2.48532512510988    2.89139944467579    0.57943682155671
C         1.87649632809688    3.73851934455922    1.36158193286666
C         4.64435157037923    2.47518768537590    0.09167518161126
C         5.60815274701668    2.99575182670598    0.79887857112270
C         4.31822232717689    2.00137825966348   -3.56094145034205
N         5.40498074638221    3.00861894838044   -4.01224154627713
C         4.87209919321620    1.09373552816180   -2.48900567377824
N         3.89131086559892    0.26946029879576   -1.79913332410862
H         3.01373269501158   -1.99250696064948   -0.41122260638090
H         1.39584725466664   -1.49151358087273    0.19681334983150
H         2.69915536484201   -1.89544366456888    1.31081601808481
H         4.11769997437963   -0.07595086488108    0.63584919122742
H         2.61734831484506    0.56070533589021    1.24241802582826
H         0.55635467426994    0.75217413079734   -0.61762676285329
H         1.25004047005509   -0.29860730428209   -1.88561423539114
H         0.68799033202642    2.72667688460213   -1.96458331468849
H         0.06505305117333    1.39987859239043   -3.00055860669658
H         3.11579387977977    3.58055198361733   -3.91521347265587
H         2.24533313113479    4.06208414568731   -1.75483704181439
H         4.01076772776097    4.13618045663305   -1.75268056071922
H         1.30472833688776    4.04211157671704    2.20876278809344
H         6.52736723653801    3.23688106965562    1.28715717080028
H         4.12196761470978    1.50835810966602   -4.51606688150519
H         5.69771950952279    3.52588945675445   -3.18308481042710
H         6.16766415923984    2.45587994922903   -4.41106434057687
H         5.52954014159257    1.71352009212754   -1.85043313882612
H         5.53425112513935    0.34371302178907   -2.94316499104001
H         3.42925187710332   -0.38049290500061   -2.46965205112317
