37
 energy: -49.858670140408 gnorm: 0.326611408813 xtb: 6.4.1 (79825abcba525fcdf90b791dcacef51065a7a4e7)
C         2.77795495531872   -1.32452267405855    0.32872721667084
C         2.72429832175446    0.18204160337090    0.51694602880009
C         2.97435555489344    1.02208333118335   -0.80429199736166
C         1.46746815598928    0.88593767136223   -1.66384586869045
C         1.07022029945243    2.17072734732478   -2.37220377137714
O         1.92214517638738    2.50319394051377   -3.39736319539963
C         3.26311786432234    2.83292995438929   -3.13362854947400
C         3.54402011334011    3.41857773137079   -1.73092090334210
C         3.29598856016885    2.48085962145570   -0.46229601758317
C         2.22832192360008    3.08052312199526    0.43819685926991
C         1.37156208681966    3.58213673935853    1.28340799739004
C         4.56067318808631    2.59257480042602    0.37346978674134
C         5.62360408196104    2.78017326793054    1.10492107143256
C         4.16423521804507    1.65414054342272   -3.52539950138577
N         5.23945996118769    2.15993288810717   -4.51903690969385
C         4.92173608471088    1.01252175311110   -2.38778841449764
N         4.07175907410634    0.27759584156344   -1.46327652032435
H         3.71256412482723   -1.55950698958630   -0.17643010399658
H         1.92649640278831   -1.62083940611501   -0.29704968113184
H         2.71936807940487   -1.87287456808398    1.27909219213369
H         3.57280202782346    0.46620448731550    1.14878954453090
H         1.79087602560798    0.44764082856911    1.02601526615854
H         0.73008317181280    0.58208437834258   -0.92518412010532
H         1.73994255691727    0.12404713799836   -2.45583425755840
H         1.00494574928953    2.99254497463358   -1.63465046690548
H         0.10906866952119    2.05755625219819   -2.90913171645049
H         3.44685969453459    3.64969530080700   -3.83686657498219
H         2.84535238539360    4.29678458537792   -1.60895005130467
H         4.65586217659371    3.73065147541968   -1.73687969453461
H         0.63440529605148    4.06831454389421    1.88093058438725
H         6.42292687825385    2.89983087879664    1.80369121581123
H         3.53860031809367    0.94817969767573   -4.07680645276742
H         5.94488498370096    1.45061349935297   -4.71905490200644
H         4.79752660604824    2.23882888221768   -5.43813230323462
H         5.53546395595582    1.79527212416523   -1.90325116560377
H         5.62119914587399    0.24410662198674   -2.74490077625856
H         3.68965326772837   -0.53110194098124   -1.99763229004565
