37
 energy: -49.730772606741 gnorm: 0.315599542913 xtb: 6.4.1 (79825abcba525fcdf90b791dcacef51065a7a4e7)
C         2.43862048293437   -1.60965844944617    0.28438044723618
C         2.44353557000585   -0.09717659012208    0.42726412010578
C         2.80793152001012    0.90853834186184   -0.74304426331428
C         1.25716843330149    1.14882307436316   -1.49502513174407
C         0.93880732938307    1.92107229258214   -2.76488285637197
O         1.88768898016615    2.48930090554821   -3.57974587049269
C         3.09260825818298    2.89460368426536   -2.97942200543557
C         3.08904911772672    3.25781613949165   -1.40375733984133
C         3.55373811603716    2.24570292086060   -0.25923342077541
C         2.96543813858618    2.77687477733677    1.03774591974493
C         2.22468348909525    3.59209594122064    1.73540815216277
C         5.06002027608343    2.43736785719340   -0.32844797060542
C         6.29652267408257    2.72125281071453   -0.02760352245651
C         4.31889488816861    2.01538607731067   -3.37187517095784
N         5.57918289035447    2.78612870113858   -3.83757829812753
C         4.72121793847786    0.82667545569121   -2.53238458674509
N         3.59261055289137    0.25366890486934   -1.81460459419067
H         1.77807730249459   -2.17538129480859   -0.36948208848555
H         2.22878077153690   -2.00039267919865    1.28821113775298
H         3.41221191189892   -2.00558678315353   -0.03605096833392
H         3.01973381350198    0.00059501297864    1.35374650507811
H         1.50076028533577    0.34066577753079    0.77430942433233
H         0.92497592096548    1.68412003475393   -0.60914143958157
H         0.82943121296025    0.10249758114790   -1.55990135462032
H         0.29278722383029    2.73238681568592   -2.38010158872558
H         0.40764416246254    1.39176882201228   -3.57889470912510
H         3.19829079271860    3.86676961281866   -3.46843634166059
H         2.04281245113435    3.66342939362515   -1.28076348200440
H         3.55565136305852    4.31181220709170   -1.33309660308888
H         2.35613803879541    4.00829961985722    2.70818586719792
H         7.19967913070511    3.01936899755205   -0.51437841375202
H         4.26473929732847    1.60025380812070   -4.38112327762429
H         5.15745047470764    3.08008863006435   -4.71876782636451
H         5.53464495264325    3.71736066812243   -3.41675837648119
H         5.23974036377544    1.33025506614095   -1.69472208960410
H         5.41676514617451    0.15988108062980   -3.06043663862362
H         3.03929403598344   -0.47597518917913   -2.31158886678034
