37
 energy: -49.855576378652 gnorm: 0.311749862487 xtb: 6.4.1 (79825abcba525fcdf90b791dcacef51065a7a4e7)
C         2.42396652087157   -1.28764959415818    0.52922622885999
C         2.93444476848549    0.14308540687035    0.55045340741966
C         2.95965675494624    0.92098832563326   -0.83088654015544
C         1.34513842954383    0.86270583365721   -1.47742490669153
C         0.98593851627049    1.93227571355902   -2.49588304699878
O         1.95408790745196    2.01480968030648   -3.46703534033995
C         3.12068046967748    2.75561918787222   -3.20867005755159
C         3.31016373603884    3.35193967417323   -1.85182455069594
C         3.33792919338481    2.42463693473959   -0.55198505587299
C         2.26822467705711    2.93087446049483    0.40187637349298
C         1.64319296164208    3.53977488592001    1.37069582646759
C         4.71424287648605    2.59979607280137    0.06889486346109
C         5.78847910259622    2.70995865768893    0.79959109801365
C         4.37239304792007    1.88710203538263   -3.56976899739289
N         5.45452021232083    2.93069510102489   -3.94281558536439
C         4.88355664202150    1.01691037267948   -2.44677324036636
N         3.91931098377082    0.21422742744625   -1.70973209060530
H         3.15541600166168   -1.94620291500581    0.06534582666335
H         1.47824508091581   -1.47311498509482    0.00425428202878
H         2.32403054507479   -1.61745021402857    1.57256709366152
H         3.93249522876633    0.17347942908418    1.00090295434601
H         2.27218905150098    0.67787271763084    1.24066461955144
H         0.66029941049898    0.91180765416938   -0.63465023538857
H         1.31350400555805   -0.16971616694994   -1.94118041119634
H         0.81271600062256    2.93679264126971   -2.06626745325028
H         0.08244323594777    1.63856116279984   -3.06363282620345
H         3.12707677634408    3.61539547021594   -3.88406197590561
H         2.49267638530777    4.10404297049970   -1.65103653883285
H         4.31607368679668    3.90995153144167   -1.95373745618568
H         0.83992977078957    3.86935720436879    1.98952213719845
H         6.76372484873037    2.43722373978033    1.14021698466871
H         4.05550324793264    1.21381052012551   -4.36983696946642
H         6.36432806258604    2.50221890879251   -3.77128283868431
H         5.38137379915772    3.28147017603865   -4.90087219104458
H         5.41550982208931    1.64169397628062   -1.70460907269776
H         5.59780708517229    0.26334889503495   -2.80626041740551
H         3.40490233603731   -0.33648486375196   -2.42919908418082
