37
 energy: -49.846088124241 gnorm: 0.325872733629 xtb: 6.4.1 (79825abcba525fcdf90b791dcacef51065a7a4e7)
C         2.71627092069774   -1.48721627013480    0.22730898141373
C         3.09271486955095   -0.03031930416770    0.43655157111833
C         2.99120514171706    0.85319401001012   -0.87606743096349
C         1.33451800214279    0.87170511094221   -1.40816064806944
C         1.07088444308098    1.96496204677044   -2.43068101841175
O         2.04374813772280    2.05504710201867   -3.39643605489333
C         3.20763528077091    2.81181674738914   -3.17472458897465
C         3.25594627701164    3.37228416116928   -1.72265637697134
C         3.23277543410967    2.36495751590676   -0.48370512667665
C         2.26162471818985    2.90585968463232    0.55296595631243
C         1.44363695333355    3.42818693453134    1.42365872250767
C         4.50732809266058    2.53847255874973    0.32612208900933
C         5.50360667256321    3.12469929859018    0.92928335357153
C         4.33977354320502    1.96021386711318   -3.66757277336314
N         5.46086184144164    2.90103354656432   -4.17478949393182
C         4.84240570600894    0.97114054145920   -2.64349460971110
N         3.88213129960098    0.20387485903562   -1.86472911664845
H         1.63724611873232   -1.50370590417066    0.08827871289032
H         2.83064075144160   -2.13706303890218    1.10423584100756
H         3.28440081270892   -1.98368580336202   -0.57147899835360
H         4.13833473116829    0.09269733983449    0.73900705939789
H         2.43431092378012    0.35526317141039    1.22319127162358
H         0.82962894194430    0.95645259362898   -0.44920834564695
H         0.95592379360371   -0.13741199284173   -1.75502400447540
H         0.87525364887279    2.94028756039202   -1.94684365824389
H         0.08376791605180    1.79237086242449   -2.90049482804495
H         3.14202894273209    3.71427155104549   -3.78846846678487
H         2.37500551469064    4.06567384977513   -1.59069093154324
H         4.19594896952646    4.03543649515193   -1.62145248092470
H         0.79645441530445    3.90646564857246    2.12309168122740
H         6.42355726242431    3.39088803367417    1.40293840833892
H         4.02017703567155    1.45678809889105   -4.58314359967697
H         5.72934590657567    3.45174018305280   -3.35906640232371
H         6.30710924033532    2.35073039045752   -4.34000991315447
H         5.38155659904853    1.56025043634158   -1.87772556157807
H         5.51405147219745    0.24429892788788   -3.12081301499161
H         3.44867572954083   -0.52396401996971   -2.47127662035583
