37
 energy: -49.851218719434 gnorm: 0.329611579524 xtb: 6.4.1 (79825abcba525fcdf90b791dcacef51065a7a4e7)
C         2.61186062211548   -1.24148581586692    0.37721492474702
C         2.78885543471139    0.25452735228601    0.57383311891600
C         3.10104765655527    1.00165930472473   -0.78932443168405
C         1.65281324845135    0.90879368130455   -1.74956981989745
C         1.15373627254054    2.18331685986415   -2.41045871209653
O         1.97309094280010    2.69668730097079   -3.38635347600312
C         3.34122636032654    2.88794330812126   -3.12536272724066
C         3.53082715366746    3.44685106695216   -1.71822238533609
C         3.41162878183533    2.43555529368882   -0.48805302523612
C         2.32372836914137    2.99454342414357    0.41438852198532
C         1.33879908762588    3.46378727451520    1.12836336836825
C         4.57136992467957    2.70167628740824    0.45777572768009
C         5.40960964032205    2.68224445638426    1.45628106484623
C         4.10330340508843    1.57176262131409   -3.56231165155556
N         5.00898786523991    1.97053859319221   -4.75393358243411
C         4.95762911570578    1.00014579806728   -2.45640794538482
N         4.25188963434991    0.29520489763120   -1.39702634869050
H         3.51139670838747   -1.72025674755652   -0.00424158817967
H         1.73876223092512   -1.35222181230508   -0.27839070098836
H         2.30012695754985   -1.68085179694245    1.33486593908003
H         3.71882473073346    0.36710471535889    1.14165065808505
H         1.98387952655209    0.72703539947312    1.14804697470349
H         0.89252642856774    0.55920049462446   -1.05571596470460
H         1.92086360209842    0.10247278604521   -2.49787504737204
H         0.89596157546570    2.93882156557547   -1.64469458314447
H         0.22095975634402    1.99267231643407   -2.97481179242133
H         3.72123659389856    3.60637184306655   -3.85670606269307
H         2.78632812744760    4.28221018572600   -1.56936977229421
H         4.57224872295551    3.93013443909163   -1.59373703901617
H         0.80905924494089    4.19332459607386    1.69753225766951
H         6.24291036447025    2.70290486114285    2.12463546614741
H         3.27432750017057    0.91476387899671   -3.83617470371877
H         5.26910191759466    1.07213005468031   -5.16132581674389
H         4.45558695167748    2.47937928774157   -5.44754340582842
H         5.64431768470923    1.75581627559870   -2.03031250152691
H         5.58754986932853    0.21064752613129   -2.88899545006753
H         3.93795225786618   -0.60767078308728   -1.81150417441909
