37
 energy: -49.851470549109 gnorm: 0.325711099679 xtb: 6.4.1 (79825abcba525fcdf90b791dcacef51065a7a4e7)
C         2.59690731745748   -1.32185337397985    0.51409211320373
C         2.81971082737377    0.17432181218318    0.65501651080814
C         2.97584409460054    0.94440024472531   -0.72210739670232
C         1.46905108553720    0.88435672137346   -1.59046661641434
C         1.10332489821307    2.12746874284812   -2.38493382605800
O         1.90464134461594    2.45707308093337   -3.45100831182417
C         3.22413765046647    2.85737714847077   -3.17682642977142
C         3.43375876222031    3.38985112176005   -1.76952404533826
C         3.34562232800310    2.41097083521683   -0.51084641264511
C         2.30232227053733    3.14540475309331    0.31530591739415
C         1.39854957627881    3.75479177281404    1.03076233191535
C         4.65318546107719    2.42683273586365    0.26403359463206
C         5.60822166036408    2.50402923350638    1.14833153911258
C         4.21112876160756    1.74492315059682   -3.61421382506131
N         5.34531529032038    2.45289658178147   -4.39629053626650
C         4.83747458079927    0.99642395942303   -2.46222376622497
N         4.01826087222335    0.25438963631330   -1.51587646239668
H         3.46110336075660   -1.79791916783218    0.05537389298705
H         1.76618980593288   -1.76863968059854   -0.04686457892878
H         2.53295122400052   -1.71623658794156    1.53765808906683
H         3.77364669663975    0.26046924979069    1.18654100554063
H         2.00015726645300    0.61583658134843    1.23326238339869
H         0.78756487367194    0.74915407021225   -0.75441553930884
H         1.47467519564013   -0.05514591899484   -2.22234338461380
H         1.04991992378217    2.97792806059105   -1.67959935650268
H         0.14231224165540    1.99084417762317   -2.91662939006751
H         3.35636329258003    3.65897770305678   -3.90851170518232
H         2.81891448189408    4.31624626363858   -1.57453862098706
H         4.51193250319489    3.75440760260120   -1.96512123944273
H         0.74061859671285    4.33163762161581    1.64000610113440
H         6.60408924069861    2.43411149433865    1.52895454931920
H         3.60010958103320    1.08302111372371   -4.23259123760302
H         6.17793464404698    1.86358792695996   -4.41132303604704
H         5.07923576644260    2.51122835260792   -5.38222415582850
H         5.37701745999318    1.73748488469684   -1.84266055280307
H         5.55521893352106    0.23536815421093   -2.79819509248840
H         3.54057518979357   -0.53934848096108   -1.99266701323557
