37
 energy: -49.836514006603 gnorm: 0.319319282123 xtb: 6.4.1 (79825abcba525fcdf90b791dcacef51065a7a4e7)
C         2.77204429117706   -1.44333119740951    0.25024831922338
C         3.00708842416630    0.03168433901868    0.52796166133036
C         2.98191481236650    0.88289893708552   -0.80944951078417
C         1.36796230190507    0.89744287581096   -1.45985238522664
C         1.07807817899446    2.06715284702496   -2.38613909447303
O         1.89008484434875    2.21547088196426   -3.48427788901756
C         3.10215951099306    2.84660983212116   -3.15408373376919
C         3.25777345523943    3.43953841128029   -1.70032239145900
C         3.13407324614197    2.40316459298963   -0.49165718847608
C         2.08507539745567    2.83438158321840    0.52029698099203
C         1.36515651258880    3.22825280610918    1.53351845164146
C         4.50200770328518    2.58678552976372    0.14509284861152
C         5.65792198808323    2.71045409360701    0.73552024668752
C         4.26108188129708    1.95319762443557   -3.58669977244212
N         5.37076365367687    2.64584966294336   -4.41621105083420
C         4.90500688736118    1.12343021102065   -2.50203952782852
N         3.96676032356752    0.30303778572798   -1.75107420874186
H         2.03248286952124   -1.63084953309796   -0.52549753107799
H         2.36063990095952   -1.85313012256688    1.18148044218492
H         3.72536340069792   -1.92765678826742   -0.00258998037679
H         3.95734260099979    0.17240540562408    1.05441003770510
H         2.26925384936381    0.38519148551177    1.25707376338405
H         0.71678549381892    1.02469686452185   -0.59877178253985
H         1.18420841439236   -0.05244885153017   -2.04798953521616
H         1.02592653906526    3.00554328595407   -1.80275804666779
H         0.10220398194885    1.80761064776659   -2.83915031841244
H         3.15812709759847    3.70823583444086   -3.82481368924574
H         2.57300289633830    4.31321975892046   -1.49530788816925
H         4.31980839114908    3.88807131683301   -1.76754092482709
H         0.65103372174899    3.89906641777797    1.95404194347735
H         6.66384594493122    2.80686186724591    1.08241664155534
H         3.84696614672291    1.33246865203640   -4.38485581670084
H         5.70506259837847    3.53698437362144   -4.04893894749511
H         6.20944694375672    2.06561501718112   -4.49497719517237
H         5.38646243797830    1.78100727451684   -1.75375525884455
H         5.67043050039259    0.45152975916009   -2.91424833653031
H         4.44861781426697   -0.51685449566984   -1.32548867688998
