37
 energy: -49.753686624489 gnorm: 0.317581907621 xtb: 6.4.1 (79825abcba525fcdf90b791dcacef51065a7a4e7)
C         2.09044374050950   -1.04970799002587    0.56531374269839
C         3.10554298059547    0.02576355506898    0.21749803626332
C         3.00472634418303    0.91410036794992   -1.09191494605531
C         1.28007699696253    1.11331096743197   -1.21014310261781
C         0.78307795440694    1.82159579091109   -2.45977738883941
O         1.78796508510212    2.00852444810553   -3.37766703776974
C         3.00919159720351    2.67648540546232   -3.18037659817218
C         3.14981047483015    3.43725899132875   -1.80069376554665
C         3.50069387213050    2.35870529732495   -0.67648433983351
C         2.94957153653086    2.55436606575360    0.72650417711661
C         2.45196885340108    3.02502540431983    1.83596665177958
C         4.99407221845335    2.51075673125929   -0.43749989963495
C         5.85982781063364    2.69929571037068    0.51903376503382
C         4.34921684264944    2.06124008122368   -3.48671348897191
N         5.31965085024191    3.25983989640024   -3.34226362473657
C         4.78736356701030    0.76122108708407   -2.85614288805741
N         3.60042860088695    0.18991841121233   -2.23800221240784
H         2.30842758657458   -1.95580026969334    0.00373056064735
H         1.04173655966544   -0.85611606584110    0.30624345534869
H         2.08864669269890   -1.36018446414335    1.61931418756641
H         4.07803096588875   -0.47765464700468    0.18973935688710
H         3.00452325112719    0.77246907821990    1.01323511318597
H         1.13774340220265    1.51694416177705   -0.21089037712932
H         0.87860576927296    0.06221105904366   -1.08375114178760
H         0.36880824526726    2.80138441427288   -2.15642162771240
H         0.10704419795413    1.26310397721829   -3.13503809749853
H         3.08391245335025    3.35634174087113   -4.03338455161317
H         2.15642408096815    3.95601633386110   -1.66528680637446
H         4.01791746600433    4.19641902760544   -1.73999289819031
H         2.56935997294716    3.18361696337578    2.88375969945838
H         6.90864153841846    2.82833777069485    0.36138677665009
H         4.31904466646460    1.85397997642282   -4.55908574639772
H         5.24333305346661    4.05449271708911   -3.97745504733188
H         5.57011296891447    3.33318408444962   -2.35324624982998
H         5.32199353544317    0.89593457153033   -1.89689346128947
H         5.23577184547517    0.12323447514007   -3.63018599100425
H         2.91749814646780   -0.31799348265919   -2.83897188025344
