37
 energy: -49.855257794579 gnorm: 0.319464723910 xtb: 6.4.1 (79825abcba525fcdf90b791dcacef51065a7a4e7)
C         2.50095599405374   -1.36711177632757    0.33414947892289
C         3.06201534128161    0.03179257944985    0.52472830723458
C         2.94469123193522    0.84821381997175   -0.82936181434945
C         1.31473758632138    0.74815118145315   -1.43045807350927
C         1.01560800893598    1.74076175656448   -2.54199171280911
O         2.01393881086343    1.77384438904893   -3.48512639327284
C         3.04050135446855    2.69721946341774   -3.22048065236541
C         3.09113536731636    3.29443417688144   -1.80111168464586
C         3.25091253895629    2.33875006798132   -0.53170899948545
C         2.35923880560346    2.94444736122477    0.53994605753576
C         1.89260590181017    3.63975864078280    1.53936164210269
C         4.67071750458859    2.55883417800369   -0.03559522499541
C         5.70497674951950    2.98614369277165    0.63354651879045
C         4.34605195132942    2.02101552734208   -3.57283553078111
N         5.42806041705118    3.09854803596834   -3.83250997374087
C         4.81794202637540    1.08009317242916   -2.49041874455065
N         3.84055660981069    0.22695605290848   -1.83149988825683
H         2.94669965611073   -1.78084699613388   -0.56808752015568
H         1.40388989319891   -1.35385113125190    0.30861276372924
H         2.79059931944582   -2.04582655795243    1.14825561299593
H         4.07559512786032    0.09405674191261    0.93547458227646
H         2.43041996285529    0.61709990163742    1.20257359659309
H         0.62724050079705    0.90214298518225   -0.60261817405886
H         1.25375718758176   -0.31773086453136   -1.80747524428617
H         0.79023088480898    2.72154033707006   -2.08274408429925
H         0.09250648517504    1.41932711588770   -3.06110164264777
H         3.03320136887819    3.61282009822107   -3.81800270179180
H         2.26782046327662    4.03719351305044   -1.58963614633403
H         4.04766870680896    3.94108595212081   -1.82355634382054
H         1.39574689504960    4.25170111154702    2.25731692464265
H         6.71986049531684    3.09885244779439    0.94790673650760
H         4.18426250460533    1.52466997854232   -4.53268689473731
H         5.63440232778014    3.51890150247501   -2.92614821706380
H         6.22533724343317    2.64740941726811   -4.28758097866689
H         5.43676593427666    1.63722859069585   -1.76186299131573
H         5.52753139627767    0.35813628498349   -2.91761987440734
H         3.26369499236408   -0.24121768926691   -2.56196348133476
