37
 energy: -49.855411230506 gnorm: 0.324771556043 xtb: 6.4.1 (79825abcba525fcdf90b791dcacef51065a7a4e7)
C         2.51004283224096   -1.32785260810518    0.43489721485870
C         2.89474960674585    0.13913026401390    0.52435797794094
C         3.00800836862458    0.94234520642907   -0.83795140512835
C         1.42224649394833    0.85082343967453   -1.54862796614490
C         1.01070285839049    1.99300160655561   -2.46313447808586
O         1.89681619534541    2.23318676896197   -3.48508169688158
C         3.16175508489394    2.75973592222801   -3.17017671598635
C         3.41344671182285    3.37302487862773   -1.74992944134023
C         3.34261641437831    2.39737728867909   -0.48765416729609
C         2.28803822138841    2.98022570984402    0.43892469663699
C         1.49444642431461    3.61022844324353    1.25950018899584
C         4.63908234725193    2.54834347498487    0.29131776264277
C         5.70809631470081    2.73461509760102    1.01419278271632
C         4.29545126125203    1.83775974605996   -3.56287620968649
N         5.42440640814424    2.72307642809193   -4.14676326401640
C         4.87782168311709    0.98900746581527   -2.45829236108307
N         3.93705916900376    0.17747003320531   -1.70088088507766
H         3.21063926966128   -1.90387458199522   -0.16615117284464
H         1.48233323061526   -1.46494926193245    0.07517582207510
H         2.59675407332551   -1.79745928655186    1.42447618417803
H         3.85778865266139    0.20286190392517    1.04245776205708
H         2.21461428955203    0.68520892592069    1.18782287158680
H         0.68960937490487    0.71545592395381   -0.75704530788128
H         1.37106439784567   -0.12411040837197   -2.12208195475183
H         0.90586232206862    2.91976319173922   -1.86836453722536
H         0.04788740943014    1.66782276710093   -2.90149152923909
H         3.30771536523850    3.61541282736249   -3.83494964141213
H         2.67765357300338    4.20385500242087   -1.54355472066004
H         4.46773582928316    3.80548604427879   -1.93719956565498
H         0.91563146543418    4.28368536955608    1.84961142863512
H         6.65592093118195    2.98246118332175    1.44047368409659
H         3.99870640278128    1.21847208722542   -4.41274364310225
H         6.19865180962533    2.06333609849113   -4.22456050485801
H         5.07008270603090    2.99904320255731   -5.06576438709012
H         5.33433780603404    1.64046801865278   -1.68931344947169
H         5.67815966000517    0.34800811035439   -2.85303097793841
H         3.44604146488729   -0.56398995840359   -2.24371763261148
