37
 energy: -49.852665159669 gnorm: 0.327731620223 xtb: 6.4.1 (79825abcba525fcdf90b791dcacef51065a7a4e7)
C         2.48228217714622   -1.29664561925206    0.48964914011535
C         2.74754447695339    0.19522221924828    0.59922807183143
C         2.87855095974347    0.99680694443495   -0.76245025868659
C         1.25155983270434    1.00512896852953   -1.37962831053741
C         0.97814151175067    1.81859257736032   -2.63413246279241
O         1.98188802898603    1.91064707682246   -3.56755668273923
C         3.15051131595340    2.62463215078879   -3.24969746959680
C         3.27589529116428    3.32538364337072   -1.94125398722581
C         3.31289467164277    2.48015483443552   -0.58683037942976
C         2.47134472480255    3.17986102187053    0.46796854824453
C         1.84970067421484    3.64638971588793    1.51484253607249
C         4.70147914383786    2.52058771342378    0.03010586359541
C         5.72553101869182    2.52491343873904    0.83715933860169
C         4.47502776524958    1.79742829042560   -3.61240833085231
N         5.57498876541511    2.85601956429987   -3.87455286419471
C         4.86103597458433    0.95582458711755   -2.41978848826751
N         3.78785076154262    0.29230062737855   -1.69500665229084
H         3.09777945751053   -1.80032480522940   -0.25289124420879
H         1.41422311999353   -1.47320520037732    0.30948653876365
H         2.62229329843937   -1.69591883296136    1.50369726274571
H         3.73509881880122    0.29854239070934    1.06182365788156
H         2.07432748647648    0.77198095612485    1.24351051216843
H         0.58995995819584    1.21197282122112   -0.54225990655849
H         1.16477025925911   -0.08775509715047   -1.66253656592446
H         0.59343855686385    2.82189987801871   -2.37143881368394
H         0.15364698458830    1.34580962694871   -3.20122754047056
H         3.17325922347656    3.44599467859130   -3.97098558291809
H         2.51011693626753    4.14310481548674   -1.80277525797795
H         4.25523866011792    3.92585770357534   -2.05930386213718
H         1.28141394767827    4.24242657497364    2.19203713687173
H         6.70261125292170    2.60000081228007    1.26282435311322
H         4.22317657251031    1.14770219577097   -4.45399988761585
H         6.46603374887528    2.39016643216742   -4.04713719612230
H         5.34824269934763    3.31046407611640   -4.76243372213531
H         5.34516281217298    1.52912660984590   -1.60671875895601
H         5.57670971735907    0.18573230457036   -2.73917633528375
H         3.16936100739965   -0.23353337149850   -2.34807791104232
