37
 energy: -49.841826350591 gnorm: 0.313329910982 xtb: 6.4.1 (79825abcba525fcdf90b791dcacef51065a7a4e7)
C         2.90567783093110   -1.39355380034606    0.44769559731469
C         2.79544682719725    0.12141248759835    0.47540027640132
C         2.99837533934161    0.98520328181259   -0.83858379050543
C         1.67673250040090    0.72700102787984   -1.94070444300150
C         1.06576056776271    1.98252848875986   -2.54122536761344
O         1.80360659154612    2.58513746064268   -3.53102713964035
C         3.10858735713854    2.97887692995521   -3.18681211430280
C         3.21090638489470    3.50162033075576   -1.73612256472349
C         3.16443876190834    2.50120241360989   -0.49223801280202
C         2.13195418916375    2.87030676820596    0.56044114512386
C         1.66222711650738    3.29194169249566    1.70132502476118
C         4.45035113035787    2.69145324876792    0.29557289176257
C         5.57200084115280    2.33528464520273    0.85689468650102
C         4.05552335875110    1.83044605789710   -3.50049473048258
N         5.10351508232171    2.36906790756245   -4.50590474321876
C         4.92622691736305    1.24117368775050   -2.41685521172722
N         4.24376587682456    0.43223283588395   -1.41827577953355
H         2.29921023427189   -1.83619157310703   -0.33980976968531
H         2.49834739380562   -1.64250664754596    1.43586885790737
H         3.92550416397237   -1.77787825377795    0.30782146451764
H         3.51457955037437    0.57057630225379    1.16896592288408
H         1.75672971933113    0.29033399198590    0.78118437457756
H         0.87982939744965    0.30585675815125   -1.33303054558691
H         1.96724038688845    0.01833294899907   -2.77458681689465
H         0.86251089630118    2.76024804609559   -1.78130976887186
H         0.08569392505165    1.76165660482892   -3.00554934620331
H         3.45035745958706    3.78916485193936   -3.83645593387917
H         2.54243001147865    4.40199994927801   -1.60682972606595
H         4.27397202334695    3.94614755465114   -1.65927659369220
H         0.91274974843092    3.65765217984030    2.36566061235152
H         6.42795542075594    2.47119889013636    1.48170161273717
H         3.50930788216613    1.02948170130058   -4.00443334015932
H         5.51038941324850    3.22501593805077   -4.12831779585273
H         5.97094998291179    1.84106716522377   -4.62853394042137
H         5.46650547037811    2.03174259398358   -1.86256622719571
H         5.67606218874471    0.55910878216924   -2.84085303814241
H         4.04716446026461   -0.47723154179712   -1.88705661100363
