37
 energy: -49.854904594964 gnorm: 0.326415420206 xtb: 6.4.1 (79825abcba525fcdf90b791dcacef51065a7a4e7)
C         2.45795114400674   -1.22780258639635    0.49022684414747
C         2.78612606713963    0.25393856963968    0.55940519272432
C         3.02821734193552    0.95731454625336   -0.84078147206458
C         1.53721335053366    0.87856220234338   -1.73452824677352
C         1.12369026106011    2.20682895315506   -2.34687404974369
O         1.91554542138568    2.60193949967267   -3.39764278608463
C         3.27146576999730    2.80110660364117   -3.08411124858073
C         3.54870564450842    3.39809021492668   -1.75054227911487
C         3.36630193270071    2.41719870412770   -0.50361615782182
C         2.26234935409057    2.99708760591937    0.36552904750050
C         1.48230783574544    3.68573254242561    1.15123822089864
C         4.64340742882400    2.49426016115510    0.31703911256233
C         5.59196778536006    2.85912874633285    1.13382576204238
C         4.20564593194376    1.61600496597205   -3.49870795868225
N         5.19783720378560    2.26205212985598   -4.49742162410988
C         4.96815219819192    0.85515060350691   -2.44072589213581
N         4.06793396199641    0.16124268456874   -1.53221161941816
H         3.31249362303251   -1.83233530118048    0.19325345276698
H         1.57659778516511   -1.36100248129697   -0.14997315823407
H         2.21220463712319   -1.59280509214062    1.49705236699035
H         3.77651652767818    0.28709939578403    1.02626749305657
H         2.02092826588714    0.78069635175668    1.14075722352952
H         0.80286688526271    0.43346151509464   -1.06796597321449
H         1.84911716236242    0.13043998635473   -2.52509402783886
H         1.01678814111467    2.96717273841311   -1.55058319751055
H         0.09398659379782    2.11201245450495   -2.74137621690272
H         3.49188980542642    3.55555253237698   -3.84413427258608
H         2.87388013261212    4.28351892937948   -1.56376089643268
H         4.61615188695461    3.83545967119781   -1.80425245794276
H         0.74552723524571    4.08589080942677    1.80989592021568
H         6.43568086391217    3.19660680208908    1.69576117301179
H         3.52850721566046    0.94036509171588   -4.02676410060300
H         5.99805237085552    1.63876067037843   -4.60664203352326
H         4.64995162025237    2.21638207652428   -5.35997692337151
H         5.66859368547632    1.50415063260499   -1.88187253569132
H         5.51248586404462    0.02480616605091   -2.91133039912217
H         3.58359857379775   -0.60853821185259   -2.04053203277179
