37
 energy: -49.854408783580 gnorm: 0.312613650143 xtb: 6.4.1 (79825abcba525fcdf90b791dcacef51065a7a4e7)
C         2.74727240295525   -1.41803294520853    0.22399877119431
C         2.80221783410789    0.08556254806676    0.43429111482276
C         3.10410223179769    0.96746086326280   -0.84828044971946
C         1.63849612912402    0.81036204012308   -1.77315711336338
C         1.08023707536809    2.08719249247222   -2.38004434682128
O         1.87683393700667    2.68887881694504   -3.32379690080928
C         3.20282155515070    2.98906048084603   -2.96583411324299
C         3.40712281077564    3.52717779061562   -1.59208567374063
C         3.36677427553806    2.46275923588417   -0.40228353496274
C         2.17899063154836    2.84110793892528    0.46743944268955
C         1.25640136233332    3.29260150722940    1.27056963311575
C         4.65618914441496    2.46427986931847    0.40258847104283
C         5.66192033957376    2.81297448413455    1.15555133619660
C         4.09025312526347    1.81337310571218   -3.47344941388855
N         4.89855480890749    2.29619511966339   -4.70340093100618
C         5.00996466205357    1.17403844073246   -2.46101517140947
N         4.27039906943782    0.34824611971346   -1.51846064606066
H         3.71302427224681   -1.80578641531620   -0.09359597101086
H         1.94965455618301   -1.62594995575096   -0.50054127975877
H         2.43593564359140   -1.88631581094531    1.16797779014740
H         3.55005841332207    0.33940221304017    1.19339137484224
H         1.84457617418710    0.40706430464569    0.85918014915494
H         0.90295280229928    0.56856407810710   -1.01014048358292
H         1.85171916685829   -0.02333153159207   -2.50899409038373
H         0.73923483443399    2.76270369400451   -1.57317884088240
H         0.13976733804569    1.87783950735425   -2.92465408920147
H         3.41024095978094    3.80474134734656   -3.66372545608027
H         2.70211467674512    4.39842030210189   -1.45732376470914
H         4.43195277369878    4.05917521031998   -1.57418051463602
H         0.36358334104757    3.38436930193841    1.84611884943919
H         6.68375806083542    2.76827256916196    1.46436198588178
H         3.39944663598458    1.04424228522758   -3.82710679773502
H         5.74966559164961    2.76101604709117   -4.38667139997890
H         5.25252710737255    1.48431661457826   -5.21508727594771
H         5.52557405231473    1.99240051131464   -1.92383096929362
H         5.79191734881301    0.55327558785759   -2.91975595088735
H         4.03438331571049   -0.54004188409220   -2.00914794534900
