37
 energy: -49.853623198513 gnorm: 0.327319420042 xtb: 6.4.1 (79825abcba525fcdf90b791dcacef51065a7a4e7)
C         2.40601108956654   -1.17392798298789    0.42443892003856
C         2.81457126462947    0.27814751127620    0.60498426030319
C         3.08931722060637    0.98541848358321   -0.78719068469336
C         1.58634399137958    0.86430711333290   -1.65579971042149
C         1.09748361179765    2.13120400515808   -2.33862405387919
O         1.85154462816926    2.59809659105079   -3.38774996291211
C         3.20886031738159    2.85823898318866   -3.12985539584550
C         3.57471186321646    3.45314520266441   -1.82195493246734
C         3.43802969624486    2.47628843199883   -0.56604377765243
C         2.33568931919748    3.11985869132207    0.25921909346131
C         1.40431629067644    3.47530783968916    1.09959739279001
C         4.69400056701022    2.44230938051537    0.28940613146348
C         5.63441694302224    2.62115205561010    1.17465669543384
C         4.13377904964116    1.62501148532875   -3.49244600060719
N         5.14497170101187    2.21730850816729   -4.50532462213388
C         4.96649897492946    1.01426443402371   -2.39098933535143
N         4.22921325286045    0.25765665511938   -1.39036268698789
H         3.00453053768452   -1.69409424023160   -0.32060965686316
H         1.36309747923994   -1.40501998326842    0.17282475709282
H         2.55773313594995   -1.68730918542054    1.38398879884879
H         3.62547041848384    0.38588169088304    1.33352336083918
H         1.98985571002072    0.86172094962338    1.02955217693366
H         0.83203795901049    0.51352640901253   -0.95604266373380
H         1.74733719411344    0.06543901512523   -2.44183790441756
H         0.95286252756931    2.91463482856110   -1.57119279094980
H         0.11791330670015    1.87940345866126   -2.78801283081983
H         3.40593085304778    3.61993604077562   -3.88905972159346
H         2.84411152389827    4.28553701395743   -1.60376286370545
H         4.65164680443384    3.83653125189729   -1.98579805748834
H         0.53958685064864    3.78773909130132    1.63944177266479
H         6.50219618681724    2.79772163757612    1.77239991474993
H         3.51852200429739    0.87733705547615   -3.99869799803049
H         5.89144039048772    1.56244841252071   -4.73922290271946
H         4.70064033033565    2.43228991732582   -5.40121448001162
H         5.51320749631854    1.74639213076509   -1.76710215228320
H         5.70846756864769    0.31531542173747   -2.80110213782422
H         3.84371319642586   -0.59761061656886   -1.84361828801108
