37
 energy: -49.855272808541 gnorm: 0.320288629392 xtb: 6.4.1 (79825abcba525fcdf90b791dcacef51065a7a4e7)
C         2.94826781451982   -1.44550494428217    0.26804669110131
C         3.14631395468401    0.03598402835456    0.54009342935931
C         3.04910703110137    0.92932193708469   -0.76618634187341
C         1.46657461501958    0.72126563720212   -1.45928219328463
C         1.01500190054824    1.86315622584355   -2.35506635041492
O         1.79658668587764    2.23930434473681   -3.42038306015023
C         3.01363564660565    2.88525861949283   -3.14105448273622
C         3.24706483907065    3.43008520391126   -1.72086783126028
C         3.24622801459603    2.41920006610882   -0.48460146106660
C         2.14445756040387    2.88099884392794    0.45520680504003
C         1.39443389684259    3.62963814982721    1.21483778759922
C         4.51449649370733    2.55456396818095    0.34218972895964
C         5.69133663662717    2.61554080601462    0.90019091790915
C         4.14607703974229    1.92617996580779   -3.60784656837265
N         5.13118680552392    2.78827693524411   -4.43585442341580
C         4.91064127919240    1.24664646332351   -2.49729852224820
N         4.09644829856372    0.38080705913915   -1.65782775277829
H         3.08081091245619   -1.69484415793538   -0.78274259823594
H         1.93322421688558   -1.82689568325592    0.43719040893706
H         3.62029523438209   -2.05876540457230    0.88416888925532
H         4.15268786237561    0.12925006342622    0.96252249647906
H         2.48460662197799    0.42981938232291    1.31984258102840
H         0.69906701032657    0.62057174911806   -0.69608010017637
H         1.58185833355050   -0.23828131335083   -2.04915031915030
H         0.75115109069954    2.69762669659874   -1.67855201954235
H         0.06611476697533    1.54327477081638   -2.82644818405442
H         3.04528614865555    3.70875549771324   -3.85956791272355
H         2.52213077680577    4.26822993774375   -1.50582185324913
H         4.23876199319465    4.01962999732918   -1.66995616841150
H         0.66047823135749    3.96654928136730    1.91097156151466
H         6.46157991096617    2.71204732572575    1.63430698462302
H         3.69277420919190    1.19358691697313   -4.27991303709566
H         5.77557330692497    3.18336768351206   -3.75070116148132
H         5.72197265142214    2.14931769100141   -4.97341295899733
H         5.45532288773406    2.03636510203005   -1.94611542579335
H         5.64157446571589    0.59365359024912   -2.99386333281347
H         3.81041377320055   -0.49444635397971   -2.14532006291378
