37
 energy: -49.843723860397 gnorm: 0.330067176646 xtb: 6.4.1 (79825abcba525fcdf90b791dcacef51065a7a4e7)
C         2.69528534934949   -1.49276426700718    0.32143934701613
C         3.09544843770441   -0.03759479840982    0.49577407664330
C         3.03517181120123    0.89649873695321   -0.78395427013568
C         1.47458769902413    0.78789806588580   -1.54609681218792
C         1.05681925252206    2.04612204746389   -2.28946968399534
O         1.87686727747752    2.42399049201737   -3.32484331295580
C         3.18582347127510    2.88763628327381   -3.10539898048048
C         3.50615212530994    3.35629799160967   -1.70089405722842
C         3.26660580872689    2.36606697871049   -0.47113630931913
C         2.10971147479812    2.93434417087697    0.33450150343847
C         1.18389550353956    3.45723935986180    1.08914110156143
C         4.53529625084026    2.53358548156695    0.34909176998062
C         5.45961575958460    2.89324222996455    1.19544671501537
C         4.25361256394562    1.86256014431361   -3.62983045227849
N         5.20002645613821    2.61495127660611   -4.59805448219193
C         4.92262284531374    1.16016075765612   -2.47280773637213
N         4.07510402739217    0.30446989582586   -1.65622690221012
H         1.62199716295256   -1.58513627144265    0.16841735961187
H         3.09205489975663   -2.13773641502225    1.11577356530602
H         3.12389790637801   -1.71095672934478   -0.66648733732366
H         4.15092578013491   -0.12512458549832    0.77548719427418
H         2.54755733195741    0.48459799809018    1.28830271291514
H         0.81826984449011    0.68561028228564   -0.68559190196021
H         1.51421323720332   -0.04464543001018   -2.31242979219192
H         0.64663217450071    2.86527239584868   -1.66949458438241
H         0.11082345748373    1.80376788583408   -2.81030380998237
H         3.31989117607827    3.76594767325255   -3.74258448295150
H         2.81000742719332    4.22533248184066   -1.51536137014233
H         4.57359868015141    3.76987355995559   -1.54880392183322
H         0.48253973874449    3.71212560502899    1.85067594301906
H         6.40118912159724    3.12677846347430    1.64312409866335
H         3.82288261184517    1.07672729275692   -4.25496068476782
H         5.69344707314863    3.33381870566251   -4.06840236140985
H         5.93971380635913    1.96225025677646   -4.86844311607765
H         5.41538736017665    1.83509838272660   -1.74770172754084
H         5.73538885718212    0.49098957668673   -2.78722937541592
H         3.54721863902021   -0.33702168765436   -2.28500238237522
