37
 energy: -49.855603897264 gnorm: 0.327679872850 xtb: 6.4.1 (79825abcba525fcdf90b791dcacef51065a7a4e7)
C         2.75761241884168   -1.32913591520825    0.40028694805918
C         2.72470206892379    0.17981932076388    0.57352748107245
C         2.97492227274529    1.02494358791850   -0.74443438056591
C         1.56741366783870    0.84917897005602   -1.75245444860894
C         1.10335387277130    2.09694825305895   -2.48592674682991
O         1.94873331468961    2.49377278364829   -3.49346124613127
C         3.25027874402506    2.90930167970913   -3.16209319696856
C         3.42121956081127    3.45341878951238   -1.72443811343996
C         3.26186922121263    2.49167025489179   -0.45957005941390
C         2.17538541913905    2.98948665805630    0.47964638990194
C         1.48257588094447    3.52378205200224    1.44638256892641
C         4.56461349381594    2.55433270995718    0.32103398592024
C         5.61942162155663    2.50771821703460    1.08604582700535
C         4.19814250802534    1.69974502835977   -3.54718933027389
N         5.27751857060394    2.29623910445929   -4.48441479733256
C         4.90692234180693    1.11558650926206   -2.34884414132747
N         4.07869008246733    0.33052127501222   -1.44606888743656
H         3.70755338034524   -1.69972405850117    0.02058648111068
H         1.98227809775762   -1.65576152363012   -0.30437921450676
H         2.46452296642414   -1.87236349089313    1.30930740007859
H         3.56302195064624    0.42077220279168    1.23616976521974
H         1.77337682043906    0.54601517372638    0.97583642784839
H         0.75634467035833    0.46408197034635   -1.13963147292794
H         1.82805928955561    0.09510122332642   -2.55581968550271
H         0.85345852048570    2.90664007834717   -1.77488433083127
H         0.19470018759494    1.78473009959195   -3.03527188037337
H         3.45070556974458    3.73384077013176   -3.85156748053208
H         2.79850552522085    4.39256476651343   -1.65740966730690
H         4.49152675113054    3.88630331118583   -1.75035731614386
H         0.81445458978185    3.75215251797098    2.24529627183013
H         6.60248437106069    2.61861431707540    1.48953591209031
H         3.58006199641644    1.05570152499289   -4.17729552507962
H         5.61885905794884    1.48705119787284   -5.00351715567080
H         4.88076468818547    2.91387821875911   -5.19671690456739
H         5.35418390868654    1.91830796421927   -1.73262036262939
H         5.72949817391746    0.46045702832317   -2.66729977437767
H         3.66794726240964   -0.51273341631339   -1.89966000366162
