37
 energy: -49.858607817589 gnorm: 0.317831078573 xtb: 6.4.1 (79825abcba525fcdf90b791dcacef51065a7a4e7)
C         2.52090839199333   -1.44710949277208    0.28077890685739
C         2.94516122825984   -0.00654561123040    0.51061909399651
C         3.06664268860834    0.91125832591881   -0.77652768617122
C         1.56684588175806    0.74100325726259   -1.64238037626472
C         1.06043179893914    2.01786018560265   -2.29310493427478
O         1.80163678461422    2.46919545778760   -3.35808076376633
C         3.11391993169697    2.90793227237060   -3.10925853509892
C         3.35620392836534    3.44290101479277   -1.68762373988074
C         3.29675847260899    2.43668333215169   -0.44898084432408
C         2.17713588287031    2.84701242807264    0.49360663429034
C         1.28350895973736    3.36543571306868    1.28903337655147
C         4.55152197708427    2.66898131616145    0.37686308226494
C         5.79827811737988    2.88084308197004    0.69427452234856
C         4.16871217071104    1.85918491277455   -3.56767173680282
N         5.12732665084728    2.49770854321963   -4.60333350359875
C         4.97495971596497    1.19411844772205   -2.47804211493982
N         4.25275444067169    0.39661300440713   -1.49839735044853
H         3.19376492570002   -1.92310461700613   -0.42956507575006
H         1.50999189454643   -1.55890777953433   -0.13144794383863
H         2.61005842894433   -1.96670545534713    1.24482668309138
H         3.97610120071891    0.01399447483422    0.88031381968931
H         2.26511768915814    0.37132878496198    1.28245025776909
H         0.81704424838455    0.37290925044587   -0.94668724703878
H         1.76274653570699   -0.05196213239126   -2.42646832835234
H         0.97949486508935    2.83776539923867   -1.55497587393528
H         0.04130268250442    1.85518520324124   -2.69288545504042
H         3.32122393772182    3.76265880304314   -3.75877991168495
H         2.60110947941360    4.24136226146726   -1.42964549198033
H         4.41305545749814    3.90753766905124   -1.71583601275688
H         0.49678563208932    3.53922303893534    1.98736471024611
H         6.66444219083544    3.22188971924345    1.21864233122565
H         3.67660922436349    1.01209093443929   -4.05152693398942
H         5.55926957681968    3.25002055043121   -4.06647448355454
H         5.83978124561774    1.79282188237288   -4.80780662272444
H         5.54006179977438    1.90358447077978   -1.84443814884330
H         5.73580307290268    0.53488627357057   -2.91823520134100
H         3.99598828281887   -0.51718130481593   -1.92802991434725
