37
 energy: -49.853601706537 gnorm: 0.321913570050 xtb: 6.4.1 (79825abcba525fcdf90b791dcacef51065a7a4e7)
C         3.02210663278461   -1.33923346491335    0.51318120790833
C         2.87124949016804    0.17247482342084    0.50854970025555
C         3.08179286143620    0.94011794848849   -0.86267754827455
C         1.58878093170829    0.71775015337809   -1.72844083716322
C         1.06840541419003    2.04444181697360   -2.25698585842566
O         1.77422647333906    2.59845812251852   -3.29724757630257
C         3.11441308547122    2.97629727669721   -3.10327085021671
C         3.37144844231371    3.47943316698843   -1.69143264539693
C         3.32329048276252    2.42436184405762   -0.49362241976717
C         2.28337234277499    2.92352923019494    0.49622502488802
C         1.21679038673305    3.37203932042430    1.09728838878009
C         4.66671595724399    2.51125040808559    0.21211860420118
C         5.47194068030894    2.43871704381799    1.23504984310787
C         4.05094804664809    1.82596576817703   -3.59341423273894
N         4.90840799388461    2.44080460148794   -4.72742705951074
C         4.95635884409002    1.22140306889372   -2.54728974184239
N         4.24994042421003    0.38802431550555   -1.58616949665288
H         4.04432871829773   -1.67121152260461    0.34362760598976
H         2.40848734750282   -1.89153614289538   -0.20987834893151
H         2.65232029885626   -1.66828064721888    1.49415104806458
H         3.67613017351967    0.58404315504935    1.12718683626997
H         1.96074730028986    0.56062455463322    0.97897202971123
H         0.91940639338476    0.28666675467944   -0.98831284278349
H         1.85148474485856   -0.03768910592445   -2.52985416622649
H         0.98260115399785    2.77566989577777   -1.43141152381216
H         0.03820500898601    1.93628349423359   -2.64673022710456
H         3.27196517899787    3.76375151379412   -3.84523013083183
H         2.65637218884361    4.34373630868901   -1.56531052089328
H         4.43337729546516    3.93322321396076   -1.69153290276693
H         0.42324578194510    3.61868754413423    1.76531072720044
H         6.20542316691847    2.37908465361707    2.00962200874810
H         3.44430592945059    1.04826365614609   -4.06353563869652
H         5.68214231591254    2.94328376321060   -4.29197838763223
H         5.27131522443578    1.63018646643341   -5.23483477705785
H         5.54395267359511    2.02255531373141   -2.06043764838040
H         5.68608983343501    0.59118861303929   -3.07413132080660
H         4.11349681350509   -0.50350123641054   -2.10779998911205
