37
 energy: -49.859451075506 gnorm: 0.319250729988 xtb: 6.4.1 (79825abcba525fcdf90b791dcacef51065a7a4e7)
C         2.75656348524229   -1.45399145658654    0.24656206687012
C         2.88199446062407    0.03924665254724    0.49665864290469
C         2.99778684075680    0.93121508333709   -0.80904158652556
C         1.47360983809615    0.73798788600656   -1.62612533129166
C         1.03366872388549    1.96540823317754   -2.40724785465099
O         1.84541226048786    2.35726494884951   -3.44396508767983
C         3.10490977486312    2.90181111993893   -3.13798301158169
C         3.28783150450191    3.43209116211081   -1.71295242203834
C         3.32470383709833    2.37655023744263   -0.51515534390766
C         2.37836641799158    2.90378614522720    0.55108271954711
C         1.59668601306593    3.58972905302160    1.33752640884573
C         4.69255777623264    2.47809736447467    0.13988348477771
C         5.50656803400221    2.73796950762357    1.12471346124401
C         4.15368521367780    1.89974442426259   -3.56197584732560
N         5.20128326137633    2.66204734320717   -4.41090578176598
C         4.87972318341370    1.13187331937971   -2.48360482918004
N         4.08834947181705    0.30162953382436   -1.58821543819057
H         3.60757811291794   -1.90121031698951   -0.26301152079506
H         1.83362066837676   -1.63716080841642   -0.31824546098027
H         2.57531395607691   -2.04773815568117    1.15316521806596
H         3.79086727578109    0.20211650961710    1.08602858417368
H         2.05191865620045    0.44859956442907    1.08349420094877
H         0.66431269591272    0.57843274579886   -0.91812468849741
H         1.63347668890672   -0.13703133074402   -2.32666016435928
H         0.83044607400124    2.79582052170088   -1.70528927897688
H         0.07870385060445    1.73356386738679   -2.91636675184954
H         3.23553322810516    3.74695550238651   -3.81921637693526
H         2.49478330584237    4.20443768938990   -1.49200862062447
H         4.26396579936338    4.04801901014175   -1.75054276042831
H         0.89472532202996    4.08548238729782    1.96862233060177
H         6.49665156437613    2.66020529701418    1.51867029344899
H         3.74163086262202    1.20461357432454   -4.29740339848940
H         5.47955598455159    3.50906902980811   -3.91503865353844
H         6.06036604216685    2.10739983682453   -4.38622927256629
H         5.48701030218793    1.81505267686609   -1.86022315659746
H         5.58976778329589    0.42723194082898   -2.93809005485097
H         3.76764807083506   -0.59509791734382   -2.01078321862620
