37
 energy: -49.860852956508 gnorm: 0.327817073147 xtb: 6.4.1 (79825abcba525fcdf90b791dcacef51065a7a4e7)
C         2.72611557868057   -1.33187018829612    0.40728341190912
C         2.85496909668918    0.17629453667859    0.53719573137800
C         2.86377861418711    0.97669317784761   -0.83143608674713
C         1.23456759609745    0.94804202293011   -1.44211497214976
C         0.98444550428260    1.96016260440033   -2.54814940059700
O         2.03936372369842    1.95177850617960   -3.42811481660262
C         3.17362721584481    2.74801963497115   -3.19160700008864
C         3.37738031002465    3.37942035589762   -1.80774044244955
C         3.26386304747773    2.40106342078461   -0.55069008750669
C         2.35438784903802    2.98805580506010    0.51640440393741
C         1.62385222224578    3.74111457904054    1.29052052960944
C         4.56268198830251    2.49672387472865    0.23310224502848
C         5.72501018758380    2.52002926935726    0.82342957151249
C         4.38141307940235    1.84604046777877   -3.53942174220540
N         5.50849624278966    2.80796434583836   -3.99068157754689
C         4.87127019119688    0.97678775339332   -2.40624878604306
N         3.78756495699822    0.26590482814818   -1.74479002817895
H         3.44567213554421   -1.73980103704369   -0.29963004176619
H         1.74495811031238   -1.63534228769118    0.02048022510219
H         2.87231914462772   -1.85932526792886    1.36003283570524
H         3.80926450432415    0.41296758837931    1.02014443850547
H         1.99422613112883    0.52135872834712    1.12116822269838
H         0.55896624068582    0.96400929779898   -0.59065007444866
H         1.16283472248727   -0.06542651293372   -1.94181589640286
H         0.72519087838219    2.95447796793699   -2.13857174847208
H         0.10344308405201    1.62465307616159   -3.12795959596624
H         3.15426463556998    3.60310437768564   -3.87268378361106
H         2.63372905686564    4.20831418125285   -1.62286588310676
H         4.42201311164523    3.85791916118685   -1.69198418398618
H         1.03911710743648    4.14552752216356    2.08508788360759
H         6.55730605108351    2.73565260475032    1.45770456143355
H         4.05351261365298    1.18881998300342   -4.34836666537951
H         6.23907676908260    2.24726794904782   -4.42958623703564
H         5.23239338316649    3.44517501907066   -4.74167810185200
H         5.47871878601338    1.54510033131645   -1.67675347606699
H         5.52666525963187    0.20019519642954   -2.82410154874226
H         3.23998632867126   -0.33545042888711   -2.39599087276063
