37
 energy: -49.834847527995 gnorm: 0.329842560898 xtb: 6.4.1 (79825abcba525fcdf90b791dcacef51065a7a4e7)
C         2.62708795278333   -1.39905562548924    0.56725364518390
C         3.13491482891121    0.03238280903296    0.53353199809948
C         2.98426914087953    0.87804259603300   -0.79914727582623
C         1.45096850453844    0.69105370079062   -1.60046022510978
C         1.07293826517028    1.87465001721770   -2.47593391794356
O         1.87924695339031    2.30449968152389   -3.50177866321767
C         3.12399648467036    2.87219319443705   -3.17803149055675
C         3.26022450030656    3.39389151791347   -1.78990590918470
C         3.16378044577340    2.40050616425707   -0.54325915565988
C         2.13340460553688    3.04720235526774    0.36806162628345
C         1.34587793407991    3.25248509620721    1.38673539534523
C         4.51597173954087    2.65124942148861    0.10413444636909
C         5.63608891735146    2.68985118900886    0.77038044888316
C         4.32098532511541    1.96404437902634   -3.48090034896263
N         5.37482497498300    2.94527616035596   -4.05173800279230
C         4.97780865764291    1.09084986869532   -2.43890434275433
N         4.03255961095988    0.29679256917906   -1.66865990028451
H         1.58360715606950   -1.26435654147126    0.28994545828898
H         2.72663663453482   -1.72514796170328    1.61039114636967
H         2.95654014566253   -2.13229372927320   -0.18183843460185
H         4.21153718811521    0.13114887520774    0.70977862059948
H         2.58855259394090    0.55433846424767    1.32727138976870
H         0.67933574240689    0.66827807960627   -0.83511796915739
H         1.60802104444862   -0.25505676842441   -2.20226963987709
H         0.84489569912732    2.74006575415995   -1.82579389718183
H         0.17667704303004    1.60130727422181   -3.06492571511820
H         3.16365155758828    3.73799038007874   -3.84453964528322
H         2.66046175701489    4.30735830812144   -1.50684435409195
H         4.36158427867695    3.73928025263237   -1.82639663408118
H         0.73396355727860    3.80278806642641    2.06462162156400
H         6.46209567034978    2.57276456771023    1.43785190253251
H         3.98356940943469    1.34976409378388   -4.31914828410651
H         6.28631946935582    2.48760207591931   -4.07359833338260
H         5.14193310015287    3.22946291902395   -5.00634015632340
H         5.60442931596827    1.60476069606799   -1.68565896381177
H         5.65341016891264    0.35869444512849   -2.90231631955477
H         3.56486534269515   -0.32663313273063   -2.36013333069872
