37
 energy: -49.854478346175 gnorm: 0.322051447852 xtb: 6.4.1 (79825abcba525fcdf90b791dcacef51065a7a4e7)
C         2.77388550302885   -1.31083573825248    0.29612322049986
C         3.06910319223939    0.16026553232983    0.53434338164745
C         2.96408719144382    0.91373101513226   -0.85674613801939
C         1.29157918702004    0.95940678039090   -1.33498125884774
C         1.02855557239798    2.03834916548643   -2.37274963229713
O         1.97207388910992    2.09024119691574   -3.36991675932053
C         3.18850189489898    2.77095833905161   -3.18711459522448
C         3.54530016033799    3.32731015466164   -1.80097749971912
C         3.33440963405468    2.37303614355821   -0.53799279407191
C         2.31616503837135    2.90831740361421    0.45550998514676
C         1.36977678136412    3.55349926689686    1.07850696553004
C         4.55304856115655    2.57502734031790    0.34774459011417
C         5.47137228424091    2.85314824329673    1.23056205321768
C         4.27197182046513    1.81154625797841   -3.64021558401168
N         5.46106710024684    2.70490031865712   -4.07290528950269
C         4.79969339991733    0.84420942947433   -2.60802828762966
N         3.74865844286976    0.16529454423131   -1.86526361828288
H         3.46619355543445   -1.73185784206612   -0.43006256533315
H         1.74328373697226   -1.38587677218149   -0.07348581781352
H         2.74894009387714   -1.86708326570428    1.24337304131659
H         4.08780881879728    0.23202035536206    0.93060516876214
H         2.44477090281957    0.56636018814294    1.33825130089769
H         0.68887860638364    1.17555737916949   -0.45650784088256
H         0.97817423646043   -0.03201708141748   -1.78311199335322
H         1.00735887839838    2.99766356829813   -1.82238935660966
H         0.04623652751052    1.93338507262879   -2.87169211785428
H         3.19332127421950    3.65743090270180   -3.82707832800116
H         2.95343584395061    4.26597732950064   -1.59394772141280
H         4.66006634301194    3.59583604939047   -1.93812160368252
H         0.82359095629600    4.03244261746528    1.85895336382768
H         6.28745812033143    3.16991942207955    1.84307696616367
H         3.84893310805368    1.26359635092886   -4.48557853383727
H         6.38079556217884    2.26525507907029   -4.03319037400619
H         5.26388902200894    2.99904423258681   -5.03252301237700
H         5.36350690650320    1.43993419057598   -1.86549025651686
H         5.51965091818249    0.11240594383568   -2.99964603089283
H         3.11862367483510   -0.36547062289572   -2.50313317216353
