37
 energy: -49.853018343069 gnorm: 0.328487055991 xtb: 6.4.1 (79825abcba525fcdf90b791dcacef51065a7a4e7)
C         2.45878729341831   -1.25010870423748    0.49429133941290
C         2.97554421336459    0.17667771020398    0.56698309150259
C         2.95342539234294    0.92665534150354   -0.82976776543487
C         1.32169584823665    0.83244776149293   -1.42697941810603
C         1.05790733079926    1.97265894261649   -2.39682237949706
O         2.00739963154164    2.03297721350835   -3.38782588766520
C         3.18391170748822    2.75567549784991   -3.12322037553119
C         3.35440646010581    3.43826366407478   -1.78040297091574
C         3.31619859179267    2.40018058882132   -0.56748596326124
C         2.27410103174546    2.95562481193479    0.38954598786289
C         1.34120928388957    3.45874897398138    1.14889737525922
C         4.62054967468746    2.43802702777285    0.21203170775704
C         5.76419331499443    2.52214422981405    0.83254740722308
C         4.37122780550881    1.88089823422008   -3.56750871228648
N         5.46065540437819    2.83230506777492   -4.12178480528355
C         4.92750556964181    1.05774202973457   -2.43057857713889
N         3.96058854642395    0.26278952373609   -1.68867478292779
H         3.07977119849040   -1.82150351663992   -0.19257313404037
H         1.40190015594446   -1.30331404031424    0.20353238590525
H         2.59768402587284   -1.65074140153717    1.50795644577668
H         4.01117721707682    0.07399851850295    0.90882307950196
H         2.37150333149262    0.85121979969260    1.18431541879346
H         0.60601140219887    0.94010059768398   -0.61587445700026
H         1.25626466917226   -0.17417770734942   -1.94116714487206
H         0.87567340245444    2.94429160118375   -1.90048516696671
H         0.14663137340762    1.67277654692565   -2.94869052400059
H         3.08601565163753    3.63796149116438   -3.76149790141473
H         2.62584403690680    4.27793213521663   -1.58440703310270
H         4.38183116977904    3.95183013734623   -1.89984432805941
H         0.64870511456627    4.02231346498225    1.73167972677742
H         6.80879139095646    2.55498294990779    1.05447316450937
H         3.87038971021600    1.24909751563489   -4.30496272718105
H         6.34699059484580    2.32849234591510   -4.15850436855527
H         5.21280963445322    3.25829818061611   -5.01809298489439
H         5.48316105554454    1.73143289245005   -1.75122300650245
H         5.60866075124708    0.30465168968146   -2.85024771451832
H         3.49364711852437   -0.44602905730506   -2.29288911696669
