37
 energy: -49.856981040183 gnorm: 0.325822151000 xtb: 6.4.1 (79825abcba525fcdf90b791dcacef51065a7a4e7)
C         2.87870532434693   -1.44178857713449    0.30381117151145
C         2.97338472741719    0.05859669714637    0.52272009531294
C         3.09095268965477    0.91307464498086   -0.80766099932280
C         1.57755769707153    0.68579522934726   -1.63594705798433
C         1.03012747745722    1.89522185449141   -2.37612857779361
O         1.80028395036408    2.43937678894618   -3.37513623076665
C         3.08814718083454    2.93713371372149   -3.11030440579093
C         3.30182374867212    3.43215408407295   -1.68081077163376
C         3.30376497374040    2.40428078739128   -0.45863372271655
C         2.28886603211514    2.89648864193567    0.56024185045485
C         1.30631850455720    3.47116445245074    1.19615346261663
C         4.62870825466151    2.57766124628325    0.26584989807745
C         5.57746018605385    2.80657986517627    1.13043206728242
C         4.16112572482589    1.87741996429934   -3.55834740975106
N         5.03036623438751    2.61322384456715   -4.60823456068989
C         4.94087810884382    1.20223716122749   -2.45573432161630
N         4.14291741547550    0.29396326495368   -1.64604517283806
H         1.86798026368818   -1.76696177463009    0.06591814875768
H         3.24661037057867   -1.89844176039094    1.23144027054244
H         3.48242017952222   -1.83955912106130   -0.52360817580460
H         3.88822775322051    0.20199299388239    1.10789789085955
H         2.17935070477639    0.46576824899419    1.15887488625041
H         0.77576937217212    0.38171609163725   -0.96784827978726
H         1.85050627463530   -0.11318888654983   -2.39032663659024
H         0.76645059537168    2.68680922369275   -1.64984089709155
H         0.06095963774248    1.64970439478101   -2.85083548327192
H         3.21024387708321    3.83059036610371   -3.72855841416799
H         2.60254730852317    4.28603069830365   -1.44381297961719
H         4.31761320961375    3.98106830080031   -1.65882751809017
H         0.50641897313987    3.86471029633401    1.78103352534620
H         6.47408222436080    2.88737547001773    1.70580637846182
H         3.54171984485743    1.15804391492571   -4.09935002087125
H         5.66276218483380    3.20960572001409   -4.07422175616610
H         5.67863976258912    1.93479820855052   -5.01535383034694
H         5.35763136400881    1.99397888633477   -1.80489013602637
H         5.71801862474494    0.58238775948168   -2.92379304045857
H         3.74013795649452   -0.51191623914849   -2.16936149369205
