37
 energy: -49.856262549158 gnorm: 0.317273676194 xtb: 6.4.1 (79825abcba525fcdf90b791dcacef51065a7a4e7)
C         2.47014539452623   -1.37266516216980    0.40670112079145
C         2.74637515084780    0.11813973843101    0.50282160479768
C         3.04258377615021    0.90876844544191   -0.83920497606261
C         1.57655620870775    0.76048038316999   -1.76486795635674
C         1.15022839185369    2.09930398499768   -2.34457240236256
O         1.85268486717248    2.62854741067509   -3.39990086907709
C         3.21047453186136    2.90241681417467   -3.15929262250372
C         3.40345640823835    3.44129737483806   -1.74796430329942
C         3.27442282310662    2.42766406628381   -0.52071459458775
C         2.19450973721957    2.83010620138174    0.47035750794749
C         1.70383938537218    3.47478790679637    1.49195608629568
C         4.50221164765750    2.57304628279929    0.36348597873446
C         5.60766878806042    2.89220987309204    0.97678471428189
C         4.18397663649420    1.70875811537285   -3.59209982436724
N         5.13471257090667    2.35188579868121   -4.63216588443836
C         4.97272143867215    1.06881935449566   -2.47496006619437
N         4.16050059501264    0.26944667734566   -1.57019496938466
H         3.38938566545440   -1.84805309189764    0.07069593122649
H         1.65819639711577   -1.62433547937133   -0.28740468898582
H         2.14887247575367   -1.78997802239311    1.37104001173442
H         3.67326187754701    0.31569177930496    1.05217349485347
H         1.91540948088761    0.67924101315378    0.94512583781385
H         0.85612460319045    0.47516684229152   -1.00246445268034
H         1.63895657951441   -0.08130160709179   -2.51950321029963
H         1.07482188717110    2.85846387176415   -1.54356055374169
H         0.13516649634360    1.97478355022881   -2.76772223420226
H         3.47972284394167    3.74584430623774   -3.80081099625303
H         2.74642449966667    4.34206853909209   -1.57138246924015
H         4.47248804873912    3.87341867644232   -1.68423957890369
H         0.94342210834010    3.76148409087280    2.18215398842177
H         6.32441460121047    3.04864488689461    1.75352029237685
H         3.59061804555279    0.99386058176714   -4.16716196774487
H         5.84198158490204    2.84623125465140   -4.08796117397304
H         5.66634595746824    1.57139794777876   -5.02519345036179
H         5.46769864840833    1.91500746687078   -1.96202768360509
H         5.76565295796513    0.43205661388834   -2.89093175317974
H         3.82881476442305   -0.61251969043356   -2.01477665499666
