37
 energy: -49.854774641338 gnorm: 0.323944371248 xtb: 6.4.1 (79825abcba525fcdf90b791dcacef51065a7a4e7)
C         2.28155162390502   -1.19755110825870    0.51341397018347
C         2.84927775098094    0.21044353392565    0.57068010050038
C         2.99549869212791    0.96471190206572   -0.81624719070501
C         1.40100446265269    0.84805376640806   -1.50331135267186
C         1.04964728887549    1.95159693457889   -2.48769029468283
O         1.91165969510525    2.04029512169413   -3.55367768634011
C         3.15198829353279    2.64423104935559   -3.28287163903670
C         3.39257590309959    3.33232816149361   -1.89514669716849
C         3.33383565793979    2.41995348974129   -0.58580867562284
C         2.36064071605172    3.08798286300559    0.37180512113451
C         1.78076639299189    3.67712052398553    1.38011960766676
C         4.63070928883350    2.47465816430017    0.20510101418944
C         5.63517796200834    2.73439691097847    0.99479382816051
C         4.36720861089228    1.71962363945882   -3.60540565031134
N         5.40296206414285    2.78256202788442   -4.04883119066812
C         4.95467358294152    0.96210330670548   -2.43891987154790
N         4.00222076902720    0.23104981430566   -1.61691398054117
H         2.84980296863484   -1.85460528727900   -0.14177002069502
H         1.24785553255461   -1.17481956905733    0.14553129050192
H         2.33364746928574   -1.59701622466225    1.53568079050641
H         3.87357621080856    0.22365107639408    0.95871558617730
H         2.27451517225534    0.85224041145856    1.24796613004072
H         0.67054426441343    0.93909542384609   -0.70342140230969
H         1.21752217724931   -0.15362641517707   -1.99822160385927
H         0.82357325000513    2.88632359696392   -1.94105837843273
H         0.05496942923510    1.68807447458284   -2.89522389971967
H         3.22024054565829    3.49382588961001   -3.96766405231461
H         2.66382778322555    4.15824796558727   -1.64807703482080
H         4.40868326223388    3.87748193654141   -1.95800763907227
H         1.11499035610108    4.01039878216602    2.14331691136470
H         6.57816004513988    2.57970204987373    1.47267339210510
H         4.08218590765776    1.06855064840471   -4.43529443124434
H         6.32349211572476    2.36102008993230   -4.17410079420747
H         5.11031190428482    3.18482725031988   -4.94258987479006
H         5.49471150794137    1.62793696008188   -1.73951943229827
H         5.60316616676989    0.18522739153101   -2.86689277685489
H         3.61448685721097   -0.48962637878632   -2.26175603691007
