37
 energy: -49.855228642538 gnorm: 0.322174407818 xtb: 6.4.1 (79825abcba525fcdf90b791dcacef51065a7a4e7)
C         2.65046720410167   -1.34581972171162    0.38703874632816
C         3.08801963283778    0.10505901137766    0.49446337792021
C         3.12799594595369    0.92249242165489   -0.86350317546187
C         1.53551810769827    0.65362482130043   -1.51142499124148
C         1.03179189046349    1.86074022533499   -2.28563012462378
O         1.79915801977604    2.28971908960181   -3.34127600923768
C         3.07728237124866    2.85247386687562   -3.17942807169234
C         3.37656116593756    3.45408372939416   -1.75303337070565
C         3.34233296731754    2.41480350245281   -0.54102302962562
C         2.29704656178823    2.87437006529140    0.46225694088550
C         1.30516079738497    3.13509500913105    1.26737847999078
C         4.62588599802266    2.55327497023719    0.26130439719308
C         5.47417927762345    2.94935568070444    1.16880363421622
C         4.17615829661160    1.93150180444065   -3.61128230194045
N         5.11295633802792    2.74335510850608   -4.54001966290476
C         4.98045473940604    1.23635038934202   -2.53912887904434
N         4.12987695116466    0.33199121787210   -1.78021440986895
H         1.67467239800562   -1.44554810340331   -0.08389075279840
H         2.53528389675036   -1.89679389222059    1.32913336328622
H         3.37207692464466   -1.86928208619257   -0.25528700627798
H         4.11778103244130    0.16913751385306    0.86245620061218
H         2.49105758563974    0.67703468859406    1.21380457555731
H         0.79675955099090    0.53589838652058   -0.72271661752383
H         1.50613749990558   -0.24010995507192   -2.20593202605180
H         0.85162751855571    2.71524081551012   -1.60666076094568
H         0.03755620950774    1.65875327065063   -2.72790656701265
H         3.18692920193137    3.71140547297620   -3.84697917861362
H         2.67642803323433    4.30433583751670   -1.50575678253990
H         4.43730005701505    3.90614287851961   -1.81701645790114
H         0.72074540094253    3.54861669349706    2.05748018085950
H         6.33641203159480    2.88221938877559    1.79614885344384
H         3.73434337289605    1.15776740726936   -4.24372520497437
H         5.60656627624939    3.41994929051776   -3.95749481652298
H         5.81981658550428    2.11824179105694   -4.93479547470207
H         5.46026274185942    1.91924579828088   -1.81278561991498
H         5.73572065343586    0.60209948390499   -3.02342095477271
H         3.76863206055070   -0.52391209064195   -2.25187604157124
