37
 energy: -49.856371022569 gnorm: 0.322026220242 xtb: 6.4.1 (79825abcba525fcdf90b791dcacef51065a7a4e7)
C         2.74647757931373   -1.43663976744186    0.42280356780791
C         3.18059593257383    0.01923428760982    0.42644618765611
C         2.98726906868959    0.85798407829583   -0.90509132899665
C         1.31880599812297    0.78904057102758   -1.39453581632177
C         1.01585217601245    1.86039916374871   -2.42926816655786
O         1.96666498428098    2.08689887250440   -3.39462548987268
C         3.09433327331168    2.87352237662385   -3.10123625226228
C         3.26568279850312    3.39539412231917   -1.70761361891128
C         3.31443692170901    2.33866229356442   -0.51129221954418
C         2.29404486807570    2.75725162172713    0.53464224160947
C         1.41591363638048    3.23201171060873    1.37340554264547
C         4.65625785601100    2.41373102988301    0.19884386061713
C         5.60422770512671    2.98349352643210    0.88932207916750
C         4.32751007372261    2.08012619788979   -3.63561417703972
N         5.46275920442115    3.02742299975639   -4.09722832737994
C         4.83665156740282    1.08507402386189   -2.62058347287003
N         3.77877422456439    0.28740174020399   -2.01899082681304
H         1.66090572476473   -1.48988200754343    0.37186380587253
H         3.01283721945936   -1.80810426562328    1.42052530600286
H         3.31391558862184   -2.00885689957382   -0.32412177488143
H         4.24947196144368    0.05803851982304    0.66294476822230
H         2.69766069788582    0.61810560294611    1.20689370447040
H         0.61841459918238    0.99005684474747   -0.58785808431780
H         1.20130246471976   -0.24589833070397   -1.83844963830564
H         0.65476647784424    2.78901962725742   -1.94873615964896
H         0.16429653139878    1.50033820529764   -3.03764375858702
H         3.04457829070141    3.75346276272018   -3.74826003112464
H         2.39571209758226    4.05851250395968   -1.42889196963353
H         4.24102692627039    4.01021543904433   -1.64191058327968
H         0.53461070108211    3.62768944162212    1.82456687871375
H         6.45356427957134    3.36225652766544    1.41532642874690
H         3.99717292311161    1.50498063247376   -4.50390808770045
H         5.85711966842504    3.49304206040302   -3.27964385487080
H         6.14450134305124    2.36507860099834   -4.47510868482944
H         5.37467451178516    1.52581338949780   -1.76010888768288
H         5.49086873410477    0.36660294084257   -3.13345658409388
H         3.18572620035098   -0.10205811132507   -2.78197713361853
