37
 energy: -49.851605574776 gnorm: 0.317455537898 xtb: 6.4.1 (79825abcba525fcdf90b791dcacef51065a7a4e7)
C         2.84613738935711   -1.39263823746321    0.35074978893238
C         3.20588908980009    0.07895360569227    0.46493139237930
C         3.04730184254033    0.87954025040737   -0.89439923518342
C         1.39183459670427    0.81445268063917   -1.42663032887793
C         1.02293457507680    2.09262242857967   -2.16178756267980
O         1.75442330767000    2.35551699429051   -3.29451549003131
C         3.07169277595997    2.82894124211311   -3.16351861409440
C         3.47087882896290    3.35908061892988   -1.76419540083025
C         3.33370237615934    2.35023741842143   -0.53388565111755
C         2.25242566873270    2.83458961765862    0.41829052201147
C         1.31611573336363    3.08178909765100    1.29136081674461
C         4.54905510808044    2.52288344999077    0.36250888606546
C         5.34067886037006    3.19305274272211    1.15259830492783
C         4.14347634150368    1.83195966817520   -3.74836942547642
N         5.18286628807406    2.73986416751195   -4.45166694598884
C         4.89001279991939    1.01823398590203   -2.71872140304599
N         4.06112935020663    0.27041985137029   -1.78543393227491
H         3.76115451993702   -1.83894131993739   -0.03324637793229
H         1.98909010402180   -1.62767922583155   -0.29315057805988
H         2.62267422090011   -1.79330266361023    1.34917256421355
H         4.25251158191731    0.22900720556162    0.75128534858680
H         2.52075750538550    0.56130984198656    1.17125907342960
H         0.80246345677765    0.60245876750648   -0.53815699927781
H         1.43288813113453   -0.08522544387085   -2.11282197230132
H         0.97068295687620    2.92063304810516   -1.43014691414881
H        -0.00784242397061    1.96121441147835   -2.54276325986492
H         3.15367976222344    3.65066309478423   -3.88008106267023
H         2.86651089893120    4.27623038335945   -1.50374102659575
H         4.58693523314495    3.62065713789092   -1.90424587954905
H         0.68500737127321    3.51232443393654    2.03509720308185
H         6.16607877945897    3.32160139669103    1.81871005846614
H         3.61003505084960    1.26042919562031   -4.51167976739058
H         5.44804459672059    3.52959896866153   -3.86279933492742
H         6.00934693954060    2.14696226151099   -4.55966265561019
H         5.66464898776297    1.60368326127188   -2.18832126054172
H         5.49365823087863    0.29650711206230   -3.28613848043043
H         3.63335688959907   -0.52164403268317   -2.31000858355979
