37
 energy: -49.834960066893 gnorm: 0.328883727230 xtb: 6.4.1 (79825abcba525fcdf90b791dcacef51065a7a4e7)
C         2.85139699144870   -1.40644802520078    0.39729414077285
C         2.64478567316891    0.09839441633134    0.42561845685165
C         2.99878424238707    0.92569477568637   -0.87980399371562
C         1.54145093022533    0.69013995583545   -1.80109204608301
C         1.05638064756712    1.96775865280080   -2.46641796267039
O         1.80504478291562    2.41004209440754   -3.52997296636738
C         3.04558597955132    2.87333554072585   -3.05784345644560
C         3.23919487474934    3.41945778680346   -1.68292842898025
C         3.25495522698560    2.41712431023797   -0.43981812339562
C         2.38367292215443    3.04849174758500    0.63379174502787
C         1.43997147051396    3.55455466968170    1.37767573461050
C         4.66506404330740    2.45723742709015    0.12621725449349
C         5.71742626898127    2.56253730102071    0.88876690060349
C         4.17162515700607    1.92073617251044   -3.48051717780486
N         5.14326870700960    2.75315451960959   -4.35357957565141
C         4.92787610384640    1.16191014645017   -2.41660515717650
N         4.19268400767637    0.30537981632843   -1.49837444991277
H         2.50537315433572   -1.94361176780928   -0.48339789658248
H         2.32421474822887   -1.90932220325190    1.21801238820578
H         3.93307760003836   -1.51609786354518    0.55622740425798
H         3.27625829677101    0.45578966171500    1.24625496371462
H         1.61532896720445    0.30885200520346    0.73690307518108
H         0.81180504032016    0.21698593614318   -1.14884457283337
H         1.80963084477725   -0.12850568847669   -2.53584638227054
H         0.90820746754747    2.69330552366269   -1.64467816000883
H         0.03885091014128    1.68901332750603   -2.80085188403384
H         3.30689833305894    3.70101202222680   -3.72273285151260
H         2.58709044574088    4.27261713851348   -1.33487713888308
H         4.32581502844735    3.79402992034648   -1.79504741453977
H         0.66425129806818    4.12869868666994    1.83090760818952
H         6.69033551006898    2.45493840087296    1.31700128568803
H         3.67992470955923    1.21347833346223   -4.15272725573698
H         5.77773419724236    3.24448269109874   -3.72364638514487
H         5.59741671662553    2.15721099470628   -5.04990343075352
H         5.48131083352525    1.89762825502185   -1.80295602812741
H         5.63473559224035    0.51514027154779   -2.95445087777428
H         4.00068682867287   -0.59841534248328   -1.97985594856082
