37
 energy: -49.854770532310 gnorm: 0.327879862523 xtb: 6.4.1 (79825abcba525fcdf90b791dcacef51065a7a4e7)
C         2.54907507261951   -1.27673402643812    0.39890760509380
C         2.81145030234262    0.21130088189136    0.55687161354521
C         3.05366190449595    0.99174663236730   -0.80184344722295
C         1.61326515646318    0.87310816701518   -1.77099784878308
C         1.15212285225628    2.17276401333286   -2.41014082618989
O         1.93585874793136    2.73207979330136   -3.39003152429154
C         3.30939322317644    2.87406766029256   -3.12596326983922
C         3.62172128761334    3.45563207640494   -1.69134484006275
C         3.39966626042687    2.45627556985927   -0.46569311377600
C         2.31855710424502    3.09015006926707    0.39442430360890
C         1.36115373323276    3.61705800461655    1.10560804021521
C         4.64578053204890    2.44864557023621    0.40468208955654
C         5.48012445980153    2.79841590067327    1.34360020161644
C         4.12655791667050    1.69318344812797   -3.49560853772950
N         4.99035479605902    2.01770414653867   -4.73971090925953
C         4.95470000427546    1.04771894243859   -2.41062122227669
N         4.18385237292810    0.28159745232101   -1.44307223226503
H         3.44886452182336   -1.82559251486422    0.12866853747557
H         1.69061393193697   -1.46343586908552   -0.25879209087054
H         2.28998836997663   -1.67695118357527    1.38886523849627
H         3.69621760556779    0.37194663877846    1.18242182903847
H         1.92610303521504    0.61842013022155    1.05825545253236
H         0.86264415665631    0.55065332280525   -1.05386773127157
H         1.94730480212724   -0.00388453601166   -2.40445377147934
H         0.90565056121639    2.85784574721216   -1.57734776426117
H         0.18989932149177    1.95025470389579   -2.90966785719838
H         3.61981141748165    3.65207346351890   -3.82864237624888
H         3.07929445695446    4.43065915455892   -1.52000864191074
H         4.74822680817443    3.70954764137593   -1.67992090358520
H         0.46080722501462    3.78275501163268    1.65216356810519
H         6.34918821680121    2.91240443611325    1.95454161065138
H         3.45053686934093    0.90233270690224   -3.82937495075113
H         5.52623229313009    1.20000025228650   -5.03119213396295
H         4.30375116496382    2.19866621952248   -5.47598137084672
H         5.57889968143910    1.75874530258495   -1.83707726835367
H         5.69690050937351    0.37012938341966   -2.85475006204930
H         3.86274570164565   -0.56812607197522   -1.95335987398411
