37
 energy: -49.853667879963 gnorm: 0.331481170043 xtb: 6.4.1 (79825abcba525fcdf90b791dcacef51065a7a4e7)
C         2.74229950300069   -1.43931348119635    0.24028222923197
C         3.02953996882631    0.02637074655347    0.51831808443582
C         2.85480076515895    0.89015949326546   -0.79971221021773
C         1.19634632385437    0.91573319284250   -1.32597543626610
C         1.04092020272131    1.97832584984201   -2.40161517854833
O         1.97170299240137    2.04581246824043   -3.40975744568748
C         3.19969395830329    2.69466444082135   -3.19176924103224
C         3.48649746963820    3.19874444178986   -1.76704821629140
C         3.29533990351227    2.29514931359191   -0.46427476703873
C         2.28289983078787    3.12316013504539    0.31016633833943
C         1.58336379080560    3.86650208807665    1.12141697520250
C         4.56742438781833    2.50279817443640    0.34138958252384
C         5.62737603361429    2.96710996263131    0.94218348364770
C         4.35989461355948    1.81245839315485   -3.57836583330935
N         5.55749501839256    2.74521800431015   -3.88652524254049
C         4.77454203909187    0.90779397518112   -2.44289631662190
N         3.66750567769331    0.19473056923900   -1.82377570642155
H         3.37348145345241   -1.83626354122288   -0.55214180001235
H         1.68821712413537   -1.59259657568713   -0.02390828850942
H         2.98248294048415   -2.00906110597460    1.14858579559908
H         4.08941652674950    0.16823452016499    0.75595154972560
H         2.40157747649253    0.46271794476894    1.30332499557640
H         0.63659002798489    1.19278144340036   -0.43625538289647
H         0.86851275844430   -0.10205948829242   -1.69824993654769
H         0.90371827498043    2.99177258739965   -1.98003339831795
H         0.10151483832683    1.70535313792029   -2.91922046300375
H         3.19884522637445    3.60986743721128   -3.78994410412465
H         2.84869723374056    4.12306979974235   -1.65261806602439
H         4.55027000310022    3.64182118497029   -1.84247570768779
H         0.89661007078751    4.56168778611151    1.54790078495305
H         6.48933254725831    3.29002637656964    1.48465060535047
H         4.07850921637277    1.20518508658575   -4.44201550715845
H         6.31596749940713    2.15877573441514   -4.23519502115056
H         5.16042513145016    3.35184176283004   -4.60805773049707
H         5.22031415317236    1.52513509066073   -1.64020487012942
H         5.54886739410803    0.19058317125843   -2.74829529145934
H         3.02892597652635   -0.26585517729252   -2.50613175326724
