37
 energy: -49.856534965506 gnorm: 0.329931654765 xtb: 6.4.1 (79825abcba525fcdf90b791dcacef51065a7a4e7)
C         2.67966545324823   -1.29877483835452    0.49339553307902
C         2.93376954373521    0.19619913892878    0.58572752119241
C         2.93146136576552    1.01044288877239   -0.77473947004057
C         1.28819895247906    1.02887674260090   -1.34695181304831
C         1.06114317296129    2.10452382971301   -2.39656617378155
O         1.96954997305609    1.93677070087259   -3.41338368420171
C         3.14873441997632    2.67091019258274   -3.19646711279674
C         3.46261899113853    3.34099549640545   -1.84577972668558
C         3.33059656167965    2.43225318655204   -0.53925705930984
C         2.30262016347603    3.00756015062024    0.42130643459305
C         1.42986633087218    3.80784373114066    0.96709250871495
C         4.63337886416160    2.44881885597729    0.24361955466063
C         5.69824570709524    2.56811762277548    0.98649414768179
C         4.35506750349732    1.76698663929188   -3.62761170212831
N         5.52371552704414    2.66750370655625   -4.09939581803322
C         4.79484520027156    0.91979189674784   -2.45778356701050
N         3.71945426416213    0.23302958417849   -1.75836157918568
H         3.57105707265340   -1.84692918195009    0.19532902481889
H         1.80728765178083   -1.54546502474847   -0.12505650357280
H         2.50356955943217   -1.67893973439081    1.50916159684486
H         3.93949977059881    0.27857566271914    1.01193654420088
H         2.21614171814641    0.68612949513318    1.25352252701503
H         0.70776312774328    1.16410871931532   -0.43783620806313
H         1.10170874418299    0.01652312350879   -1.81846707707644
H         1.06708994618622    3.11994835028717   -1.95780936722826
H         0.05400783407674    1.94930805505161   -2.82842059735431
H         3.21225925733642    3.52362218024192   -3.87783138610423
H         2.80468253882240    4.25425520553623   -1.76012294760471
H         4.53309543447115    3.76304942636523   -1.94360079757566
H         0.73634568906442    4.34078283139997    1.57685253222222
H         6.53528178353298    2.26875329152262    1.57917128584388
H         3.91176041749332    1.17389183744504   -4.43108339006528
H         6.37549738622650    2.10633400945904   -4.11733712028495
H         5.29026060745108    2.97423517012374   -5.04685590715279
H         5.34949204958336    1.56042500151126   -1.74638179127318
H         5.47870459123585    0.15090110662376   -2.84298859403542
H         3.10391496099493   -0.10769933830056   -2.52683292350317
