37
 energy: -49.853996864228 gnorm: 0.331409915251 xtb: 6.4.1 (79825abcba525fcdf90b791dcacef51065a7a4e7)
C         2.84204838371023   -1.36118098168862    0.08301105841751
C         3.17970672508420    0.07364649994353    0.45084012200026
C         2.97000954635625    0.98771722519001   -0.82758486544232
C         1.29040706606164    0.89535380659822   -1.27309876916158
C         0.97995216501390    1.89359396983010   -2.37645529365746
O         1.94435088439720    1.90776461331609   -3.35471710885151
C         3.11350899162010    2.67724964459398   -3.22261238133055
C         3.30903902793404    3.35905112570680   -1.85976625786642
C         3.27286805607740    2.43353397065510   -0.55886132186687
C         2.25639678772320    2.93698658227147    0.45292794232819
C         1.48543812047922    3.09328489368609    1.49274959697254
C         4.51364959389654    2.75623801541362    0.25767730427016
C         5.48220507319917    2.92941572293143    1.11321572291298
C         4.36865617464801    1.91068045765335   -3.63469859032243
N         5.42279294656750    2.93745865235012   -4.11819796815616
C         4.87778818308401    1.01629294047401   -2.52993762651013
N         3.75632477749155    0.33607898844318   -1.89991535243504
H         1.77347708135358   -1.53123073734952   -0.03159391209488
H         3.26275764202617   -2.10769761251656    0.76864845387562
H         3.30599515456569   -1.60126115220851   -0.88364850617817
H         4.25020388636655    0.16529900989664    0.66430898924361
H         2.57428968855509    0.35646947708939    1.31943265895270
H         0.73796863431035    1.04125888168916   -0.34832414497107
H         1.10970554745206   -0.15671576050108   -1.65053973039331
H         0.86809022728057    2.90123278063112   -1.93398406271052
H        -0.01992453960834    1.63878855251177   -2.77674587001740
H         2.92328103829493    3.43863684714092   -3.98387006790484
H         2.62414688447139    4.24048898636694   -1.69168646289701
H         4.33045333504463    3.89774590559156   -1.87155857930491
H         0.75454722635969    3.44375739836576    2.18540377940274
H         6.27519215303323    3.29815606038908    1.72698823164243
H         4.18069974094426    1.36507898174178   -4.56251364640888
H         5.80942234240129    3.42405165670474   -3.30917966596092
H         6.20504405270262    2.41347142720022   -4.51793113606571
H         5.37055013116452    1.62603461806576   -1.74920903217788
H         5.52202464458256    0.18589791505997   -2.85031726072727
H         3.09248376969645    0.13135244814416   -2.67640437325103
