37
 energy: -49.856330205419 gnorm: 0.318704805111 xtb: 6.4.1 (79825abcba525fcdf90b791dcacef51065a7a4e7)
C         2.66397176116854   -1.30754855738673    0.45133523424801
C         2.67826155852310    0.20485404989575    0.59442762660446
C         2.97674704084606    0.96788358946068   -0.76298203324477
C         1.49291670963319    0.82411132199849   -1.66056501805365
C         1.02793017892574    2.01808156390672   -2.47817365116534
O         1.87787204391985    2.39556745597850   -3.48929436778797
C         3.17090674371598    2.81436474672875   -3.12990649032006
C         3.42479274689209    3.36716315774458   -1.72237977043912
C         3.26980132874245    2.41593879794602   -0.44904011757863
C         2.18271304553757    2.90813059507588    0.49243858044701
C         1.49773673366411    3.70070643474573    1.26875455509712
C         4.60889391102330    2.45744500646515    0.26895723269799
C         5.82047153277424    2.59535852301151    0.73058022879734
C         4.25403650708691    1.77333575880420   -3.54157763613935
N         5.36573759654720    2.57030522638869   -4.26835806984669
C         4.90423038598417    1.06709799903682   -2.37619470911720
N         4.03490590800927    0.26755927817501   -1.52630527966239
H         3.65178527433570   -1.70241557112415    0.22286127171029
H         1.97395459515837   -1.67102561664531   -0.32076756732370
H         2.27488188447153   -1.70839453799943    1.39751036389963
H         3.50403660052790    0.51654750915259    1.24317725446088
H         1.70694767753175    0.58744747977481    0.92780913747658
H         0.72193137757621    0.57755100105839   -0.93497956942326
H         1.76826767455601   -0.02495471750751   -2.35715226940836
H         0.89961066189701    2.86088746872224   -1.77330333349352
H         0.01575364233874    1.85194215349628   -2.89387561864396
H         3.34097933074452    3.70270335578368   -3.74418675420743
H         2.87472139586590    4.34098961515909   -1.56959136483407
H         4.52636266396948    3.71155377729935   -1.76184015424449
H         0.72710587048945    3.85209206299516    1.98987364882693
H         6.74370792202029    2.67616105639181    1.26220046823802
H         3.82467451164122    0.99468756017870   -4.17656159612256
H         6.09265260478642    1.95695959393566   -4.63736668877723
H         4.98268393865868    2.91755303210837   -5.15094226826572
H         5.38663742200810    1.78751762702634   -1.68886989501088
H         5.71522939526113    0.43467110718223   -2.76292001213578
H         3.61338415551789   -0.53293871032111   -2.04307933277791
