37
 energy: -49.853876039062 gnorm: 0.326499982953 xtb: 6.4.1 (79825abcba525fcdf90b791dcacef51065a7a4e7)
C         2.62448229365100   -1.30075109691168    0.44644254121187
C         2.79255101566481    0.20203506820570    0.59282534095820
C         3.01300531762875    0.93582123900804   -0.79527638518257
C         1.47797435773558    0.87081890893665   -1.61230317806091
C         1.10493302889346    2.14177252489379   -2.35780861871741
O         1.93426521309654    2.52338467719977   -3.38437677011616
C         3.27790891486442    2.86246464694173   -3.14744655076446
C         3.50039588765589    3.39841360770363   -1.78216638339192
C         3.32573501750373    2.42811903679210   -0.52587578540952
C         2.28331229606956    3.08519195908641    0.36407133283592
C         1.45044550697549    3.44231180126045    1.30153274639838
C         4.59475128384244    2.50438259874492    0.30730704828899
C         5.48545953399200    3.03379120479857    1.09876244051676
C         4.21745523665923    1.64546893471622   -3.60338999652039
N         5.33538283477986    2.29239360617050   -4.45836122304188
C         4.94368949932857    0.91528319401513   -2.49928230260745
N         4.06725923270562    0.23151097250939   -1.56033353237168
H         3.46498571747880   -1.83444076382947    0.00755168825710
H         1.78155348833071   -1.46272484688419   -0.23738311759381
H         2.41761655743701   -1.79877122522588    1.40378173252594
H         3.68915925556351    0.38665558767783    1.19444169715461
H         1.90747377924376    0.60252877456687    1.09998872334443
H         0.72229882269044    0.58658892738028   -0.88439355415890
H         1.55492332787905    0.04190339031442   -2.37972940313893
H         0.87954538417981    2.92119043630831   -1.60591900897159
H         0.05854806483770    2.00359226891001   -2.69081987143485
H         3.55247492815595    3.62163140862222   -3.88479975248464
H         2.80815632462900    4.27873180824421   -1.64037421594466
H         4.56048895042684    3.85439663229974   -1.73857178973237
H         0.92032689005915    3.87493894561242    2.11921866240842
H         6.21465843277443    3.18496741996477    1.86487558605268
H         3.61041238610984    1.00774192238861   -4.25042369355375
H         5.91816412076042    1.49833675196016   -4.72407787642755
H         4.88789949493679    2.57889871478055   -5.33239754608374
H         5.54002305080772    1.71250779821139   -2.01662754540412
H         5.60866751484383    0.17277067585416   -2.96157985372309
H         3.65898392550143   -0.58933669842349   -2.05536223250661
