37
 energy: -49.851421955603 gnorm: 0.316473972400 xtb: 6.4.1 (79825abcba525fcdf90b791dcacef51065a7a4e7)
C         2.52703337311638   -1.34434697973121    0.27362407430887
C         2.90560178056083    0.11431962065834    0.46602726384253
C         3.13932454836912    0.96034594149136   -0.85438243708143
C         1.69516766685095    0.77660277559046   -1.80765442441349
C         1.13628578587162    2.08144397384031   -2.35107118865626
O         1.91046011319070    2.71394216875069   -3.29333549366495
C         3.27140627269367    2.93137941258469   -3.01578162861454
C         3.59769070967530    3.46810650841576   -1.64427137475107
C         3.37177499158055    2.44267592215841   -0.44106805404002
C         2.13087511030540    2.95231896504548    0.27365378136527
C         1.39037325135028    3.49678049726006    1.19845334440716
C         4.52972898297291    2.64900471902219    0.52173153496525
C         5.38296015770687    2.89153675831633    1.47735227396907
C         4.08391054628567    1.66976459934874   -3.53857907410485
N         4.99566198887323    2.20378483777990   -4.67117835684755
C         4.98544163555332    1.01195766898126   -2.52163612708430
N         4.33305112167543    0.30154018049153   -1.43214410513832
H         3.40188705543831   -1.92970671745668   -0.00184073081612
H         1.76879041414329   -1.50911666320211   -0.50245618233941
H         2.17599376655234   -1.77701766174339    1.22066318851392
H         3.89994500240871    0.23219877627881    0.91023371811003
H         2.15969937864867    0.68339709456643    1.03237702793277
H         0.96369518723161    0.43884890674324   -1.07789079624548
H         1.90630695772134    0.01788118507640   -2.62112036714387
H         0.92771250275394    2.72817846382296   -1.47822438572229
H         0.12527696444147    1.89233354804893   -2.75973997937264
H         3.53746679851894    3.72927493698197   -3.71434081761706
H         2.95130608181294    4.35661978827398   -1.38544356876669
H         4.71875621710721    3.74378253138873   -1.67313605525693
H         0.69494016831815    4.21771694774199    1.56372822753500
H         6.15153709560349    3.09111014566716    2.19217714543633
H         3.38082548250688    0.96012629162881   -3.98122366640471
H         5.30936290030001    1.33462031084887   -5.10350973229102
H         4.34348315107859    2.57112138016089   -5.36831007959580
H         5.70383913627684    1.73596159028644   -2.09284743581763
H         5.64569466376311    0.33038781345958   -3.07550262485583
H         4.17735782730095   -0.71288330762422   -1.61169249474983
