37
 energy: -49.830010053640 gnorm: 0.325864557129 xtb: 6.4.1 (79825abcba525fcdf90b791dcacef51065a7a4e7)
C         2.38206354001165   -1.33714589766698    0.28343275686633
C         2.69019060816015    0.13235957727458    0.51506316628361
C         3.13893718941084    0.90415071456134   -0.79521680085534
C         1.83020109803244    0.57424637754767   -1.89360248125423
C         1.08261093039755    1.81610269012245   -2.35094603859079
O         1.71344361020990    2.57696378842198   -3.30509612917090
C         3.03816339999730    2.97538036461838   -3.05435470369448
C         3.22481145489129    3.47530507867211   -1.64473947237532
C         3.29410342471731    2.40530600348283   -0.46129339078109
C         2.34654405617526    2.88111554786495    0.62780364652513
C         1.30783535217897    3.33000661329474    1.27558185591006
C         4.68591667943268    2.46707000470378    0.14653314848238
C         5.86611566561534    2.66798504989796    0.66305975077088
C         4.10335825116945    1.96200247281081   -3.45246881747750
N         5.10846279092043    2.60075814321514   -4.44292603568177
C         4.95266358974745    1.23313331918417   -2.43902349638860
N         4.31049661792881    0.33019979166474   -1.49582050568984
H         1.42651216893019   -1.52411423894058   -0.20222171235715
H         2.45467022773837   -1.99005597569909    1.16253383017506
H         3.16662716922201   -1.79647986226432   -0.33364748830444
H         3.44092459736291    0.17869353357954    1.31142046934123
H         1.84223458441305    0.73562186921131    0.85859891217443
H         1.07773079538004    0.00635374262724   -1.35233451045395
H         2.32302453473975   -0.02235152063760   -2.72013808254067
H         0.87630054109292    2.39549350749225   -1.43150481676233
H         0.14993583099596    1.50727856801555   -2.86051113869840
H         3.04984383376234    3.77623324252191   -3.79860509651946
H         2.49572897519879    4.28901380067603   -1.36087749960078
H         4.16679514890923    4.10601835979665   -1.42454458130429
H         0.67633820914730    4.13438913201955    1.57721473905969
H         6.80820267577656    2.49186290812255    1.13525428936106
H         3.58977513766988    1.20584423798757   -4.05105588652655
H         5.73923798805202    3.17600687987079   -3.88437684665841
H         5.62303848257749    1.89261130206962   -4.97208189138975
H         5.72690423340938    1.86951101346855   -1.97028983554586
H         5.42259906816865    0.54232495187723   -3.15259484697155
H         4.97220238178961    0.06431226952972   -0.73622696501394
