37
 energy: -49.852646520012 gnorm: 0.319571921018 xtb: 6.4.1 (79825abcba525fcdf90b791dcacef51065a7a4e7)
C         2.39770206554318   -1.26099954563442    0.51205736549218
C         2.91253474477452    0.16718864527418    0.56921575339251
C         3.08758504390394    0.93554325034053   -0.80659573067249
C         1.59535195283986    0.81864292705905   -1.69409381386697
C         1.09195406110493    2.09126983037007   -2.35535973375400
O         1.81779780794001    2.62669279823052   -3.39157157350227
C         3.16862393498799    2.91033148638991   -3.12453707919052
C         3.44581074666495    3.43786883844276   -1.68700659581795
C         3.38895251778213    2.44082086435079   -0.44084991081988
C         2.27724962953412    2.92219385326754    0.47718742959812
C         1.12067295257221    3.18737521065702    1.01759907821800
C         4.70587375532474    2.45816821629376    0.31798437894869
C         5.75259171184902    2.52558212148017    1.09249915910336
C         4.14928926211349    1.81046339183682   -3.58937240336964
N         5.06237810335521    2.56215476723245   -4.58961151855426
C         4.99676561569996    1.12069383127304   -2.54743046472693
N         4.21756540878145    0.36722294008357   -1.57664320166460
H         3.25745718837879   -1.85657540890291    0.21204675444509
H         1.66257066446584   -1.39323782178051   -0.29198048166477
H         1.99577594723408   -1.65093747935594    1.45742481339461
H         3.87690118664456    0.14527273482980    1.08830184532992
H         2.19683963069622    0.70429682162989    1.20188227720693
H         0.92628589433106    0.53969651021210   -0.88401719819664
H         1.74903338711636   -0.08040483184756   -2.36495910290193
H         0.96107738920399    2.85418657785158   -1.56513243130143
H         0.12180598488534    1.78319893861923   -2.78989029256895
H         3.38613727487509    3.81511557061518   -3.69852673040525
H         2.77663513798674    4.33257913224100   -1.52589093904080
H         4.49446222913248    3.92152283189334   -1.68179237316467
H         0.26166868791025    3.37258252822783    1.62143033575397
H         6.72566308201918    2.34330122480026    1.49427070918374
H         3.59632602073766    1.06214526897122   -4.16217342507780
H         5.74627553153060    3.08751979276821   -4.04459633291525
H         5.64279777402386    1.84412919104089   -5.02985950382402
H         5.63052758131534    1.88268075627792   -2.05563977150295
H         5.73059172562487    0.41235606597517   -2.95608248934970
H         3.91645760481958   -0.50882057982721   -2.05352356506542
