37
 energy: -49.852141671069 gnorm: 0.321643684152 xtb: 6.4.1 (79825abcba525fcdf90b791dcacef51065a7a4e7)
C         2.55975677628165   -1.24693464580928    0.42105812991916
C         2.81203299815528    0.24369589854176    0.57078643593186
C         3.06541725158698    1.01497745789006   -0.79112025039583
C         1.60720173196599    0.82610529598140   -1.72171841070990
C         1.13314106561507    2.13619071845060   -2.32933997022856
O         1.88405060541441    2.59173620677500   -3.38568983992856
C         3.25357193240656    2.82782989450264   -3.17317946937224
C         3.62542147113212    3.42322784852478   -1.74371081397150
C         3.34996095609273    2.47249212543093   -0.49052802623783
C         2.17979062982525    3.06292819377613    0.27920080587055
C         1.47482128261845    3.62879770450858    1.21879935289666
C         4.54909790726786    2.63249681575665    0.42973337020885
C         5.39835382485689    2.62211067410620    1.41902239506289
C         4.17465154215270    1.66323058941540   -3.53534577161172
N         5.05688948725025    2.12046121537366   -4.72355695076983
C         5.00687402481917    1.04212940970508   -2.43931644540072
N         4.20964514836390    0.33979993888501   -1.44510384774703
H         3.45772724848807   -1.77546369454022    0.10768627004691
H         1.83056919376418   -1.41020828637635   -0.38268883646248
H         2.36685887926099   -1.68284887776901    1.41105055007564
H         3.68680466572912    0.37957070643176    1.21595763672618
H         1.91052179198398    0.70475960475745    0.98991579985390
H         0.82059035368549    0.47561532719160   -1.05833018451338
H         1.76371758553711    0.07316924456248   -2.55271491013954
H         0.97903461698264    2.86235032617126   -1.50923431671020
H         0.14533527810542    1.94789095591724   -2.79161120687839
H         3.52751439520830    3.60433180695012   -3.89249214049083
H         3.12958946714675    4.42707491952781   -1.59982738575951
H         4.74964689767857    3.59016756979760   -1.94832415627130
H         0.77582295656505    4.24553337607873    1.73633264404754
H         6.30699456381222    2.45636462908478    1.95606508428152
H         3.47562812019210    0.89801283164722   -3.88126109147964
H         5.51452531619663    1.28307417668257   -5.08427574760399
H         4.52039738364805    2.47289704326434   -5.51994330216128
H         5.51338937329970    1.80853332968311   -1.82270990793611
H         5.72915187524836    0.30406832916657   -2.81457658812336
H         3.93574988820904   -0.62628002330277   -1.72295980406382
