37
 energy: -49.854353516420 gnorm: 0.325290684108 xtb: 6.4.1 (79825abcba525fcdf90b791dcacef51065a7a4e7)
C         2.68157679827097   -1.33087297584608    0.37343546187979
C         2.84523454372784    0.16132857396700    0.60708467471066
C         2.96715893708818    0.93346425035003   -0.77233896783296
C         1.47544329744151    0.77304287599364   -1.65388735811728
C         1.04938482330122    2.02238648655988   -2.40746284112685
O         1.86114877633470    2.46016270813560   -3.42562448867934
C         3.16326804431056    2.87692143557068   -3.09807735136769
C         3.43831520719861    3.37442962954118   -1.64659486837542
C         3.30372375266107    2.35915474713278   -0.42130058785198
C         2.19734194066332    2.94666051872745    0.43960130711028
C         1.24786576091649    3.51646024353551    1.12797531351612
C         4.62177952875988    2.43935339371804    0.33150026353872
C         5.77306324515704    2.49991177876071    0.94052796585829
C         4.20366734324530    1.83263369534974   -3.56444278197483
N         5.20421702144985    2.67592945007096   -4.39329865298082
C         4.93539532906348    1.11664121300956   -2.45468148328507
N         4.09611532409933    0.35865107826607   -1.53906186501997
H         3.49801828338547   -1.70528103089299   -0.24067996423429
H         1.76749000521060   -1.58022896337722   -0.18032344272163
H         2.62949092774250   -1.92572931428570    1.29579591582346
H         3.80075756437772    0.27890362403023    1.12966019728482
H         2.13866382354442    0.74558748554887    1.20739372961244
H         0.67343975629425    0.50695090868983   -0.97002333486639
H         1.73870227385945   -0.08640195488126   -2.34237438493223
H         0.86386858360482    2.83112727026784   -1.67592205213828
H         0.09132594229005    1.85632485218332   -2.93610117191865
H         3.31018722205220    3.72530743856140   -3.77192181186234
H         2.81518003578273    4.26923149547578   -1.35454531051495
H         4.53368893381272    3.73807931316824   -1.68575625324122
H         0.45037552300425    3.87584737709770    1.73760837198817
H         6.73714865482174    2.71298889258890    1.34875837301183
H         3.74763111370624    1.17183265201472   -4.30553812554720
H         6.16045738896413    2.57027230644301   -4.05387770130917
H         5.11625641568994    2.37689298471078   -5.36751943643647
H         5.54378022831974    1.86661332249466   -1.91473145019778
H         5.60118278577477    0.36324846120543   -2.89781357487580
H         3.75657416847734   -0.55225162481153   -1.91389664001403
