37
 energy: -49.855087476459 gnorm: 0.335043718459 xtb: 6.4.1 (79825abcba525fcdf90b791dcacef51065a7a4e7)
C         2.41873637138386   -1.23940493582327    0.58614862073452
C         2.86006062948717    0.21423586750303    0.60038208483063
C         2.90924159252958    0.95612804868235   -0.79999139040848
C         1.25934427709490    1.02302251829086   -1.34902882940367
C         1.05009110679273    1.94158474806785   -2.54180618904928
O         2.01764943444735    1.95521805281402   -3.51695073811770
C         3.21989562341424    2.65383651735865   -3.30952389769973
C         3.34957786739027    3.32816850004982   -1.89777604687535
C         3.29334033642062    2.38948367797053   -0.60705833887345
C         2.36433138761060    3.13722624345259    0.33539554811755
C         1.67986485529902    3.50800523585455    1.38137072378451
C         4.56900024860914    2.52878439219183    0.20761894957269
C         5.76879470484183    2.72340486713281    0.67947960529998
C         4.42847682716089    1.75695118557454   -3.58052800387536
N         5.60077620720864    2.71767769206367   -3.89985258266144
C         4.85429191218839    0.89764013837071   -2.41437738861782
N         3.77372795433271    0.19957182732191   -1.73439104877632
H         3.07271918553377   -1.80749973277471   -0.07223624187093
H         1.40878520279565   -1.29526401120557    0.16040174886765
H         2.38756923037406   -1.65549073545893    1.60262145603160
H         3.89885042167956    0.29003674578382    0.93965086704343
H         2.29255255173073    0.89898296567871    1.24071607026362
H         0.61133192005030    1.36888967017767   -0.54769212389893
H         0.90814837509435   -0.02276430183955   -1.60389439626947
H         0.89833004338453    2.96488363682501   -2.15006926181091
H         0.14021823921811    1.61748686165079   -3.08217985183859
H         3.28966566854723    3.45435101607954   -4.05095433268194
H         2.52696007605008    4.06160062451902   -1.65356700162574
H         4.34495065328835    3.91067543223080   -1.95724871310861
H         1.16987970353410    3.94061732779981    2.21177075620892
H         6.67817504446422    2.96633850033151    1.18497464578108
H         4.24575409746701    1.11486968523727   -4.44550957635945
H         6.34044027170696    2.08850635705792   -4.21259234314718
H         5.34770873229158    3.31047787676430   -4.69408857079587
H         5.35519799862404    1.53063039375745   -1.65770518880468
H         5.54410005319466    0.10487684208038   -2.73520555316543
H         3.26136260680246   -0.26578303760277   -2.51314623472198
