37
 energy: -49.852740892216 gnorm: 0.319717066378 xtb: 6.4.1 (79825abcba525fcdf90b791dcacef51065a7a4e7)
C         2.49785528928479   -1.21341658689622    0.52973860993194
C         2.94448605491890    0.23726536265687    0.59364571260494
C         3.03473110057727    0.94196897397337   -0.82378763593223
C         1.47750363874494    0.91861452162840   -1.60004489501959
C         1.10568017342792    2.16721295916894   -2.38299479190463
O         1.93589735532284    2.55565177333975   -3.40628194337338
C         3.27235708575960    2.92571993820622   -3.17516618401768
C         3.53142039556230    3.37884163380186   -1.79623506902532
C         3.32017500637291    2.40817809370219   -0.54586243586382
C         2.20793667930641    3.00189543498018    0.30314966052077
C         1.63574313971172    3.65705165247011    1.27443769207644
C         4.54371838047815    2.53745953673210    0.34668441371107
C         5.44763623629199    2.72575917432041    1.26728861338126
C         4.20777220381413    1.68647129499746   -3.57815672091851
N         5.24990911276678    2.15338463774121   -4.62467095239623
C         4.92515167455260    1.03018343402768   -2.42304020801462
N         4.09905573852164    0.21111963832661   -1.54896969642865
H         3.24874748148645   -1.84277349421548    0.05648746548405
H         1.59514160188615   -1.29182514790116   -0.08940765248884
H         2.25300224399224   -1.56628644630970    1.54109693256209
H         3.95160889838273    0.19333415567248    1.02225618758918
H         2.23119273540475    0.82575263417897    1.18175028768276
H         0.77437107230793    0.72415129559755   -0.79414585366832
H         1.44573292489815    0.03696355759446   -2.30972601435961
H         0.91406113061692    3.03340937819065   -1.72222572315738
H         0.16822835664975    1.98331198027860   -2.94181165963362
H         3.55705272504755    3.65238390231923   -3.94088041791607
H         2.83655230189965    4.25449894426558   -1.63925299240665
H         4.60522779254830    3.80249419401594   -1.82901447497484
H         0.72507855676966    3.81171208295009    1.80695293117575
H         6.38526991832072    2.82223592567736    1.77032926193304
H         3.52748435000796    0.95018669593533   -4.01283222619340
H         5.90094027515576    1.37207799084682   -4.70519426582459
H         4.72756857803042    2.15037815300294   -5.50411244420243
H         5.47878263119155    1.79031256848377   -1.84008836475405
H         5.69296630771661    0.32737291422033   -2.77483231826154
H         3.73841759167386   -0.67336315000804   -1.96509871896754
