37
 energy: -49.857086880118 gnorm: 0.322289912241 xtb: 6.4.1 (79825abcba525fcdf90b791dcacef51065a7a4e7)
C         2.42756139795655   -1.22660026558168    0.43925189496472
C         2.81658113575554    0.23386221152232    0.59337611153477
C         3.04598372497153    0.95878204911130   -0.79793058620020
C         1.52744728251814    0.87277140652115   -1.64334608971912
C         1.08795205033614    2.13079343555552   -2.37443145035719
O         1.88997023625762    2.51380479389818   -3.42196713231187
C         3.25240281298457    2.77532593311483   -3.19420910349175
C         3.56643089229021    3.34492753253453   -1.83622498892032
C         3.41131795128703    2.44622902134418   -0.52529975580267
C         2.32700918116864    3.06447860913660    0.34213196051524
C         1.50078307166431    3.55775759636859    1.22193976364475
C         4.63572516020274    2.61988759292636    0.35848851368158
C         5.66531627081790    2.80293358585610    1.13725199047114
C         4.14004791311847    1.61374816029932   -3.53575205568891
N         5.18980303282571    2.26642996233693   -4.46917055632342
C         4.93377429059030    0.99858234180516   -2.40827226716349
N         4.11174591058453    0.21025061524542   -1.50267760738367
H         3.19294198367169   -1.76395215883683   -0.11693274048716
H         1.50361299884906   -1.26292697675132   -0.15183331380817
H         2.25356009497918   -1.69139009859433    1.41956295069000
H         3.78533216802951    0.29917702373894    1.10051388862203
H         2.01091652581169    0.73495115943479    1.14181573659729
H         0.85624394194558    0.62784832584105   -0.82408826857275
H         1.60292899348176   -0.06479691111474   -2.27361052082601
H         0.93812734633818    2.96219174136921   -1.66031712371911
H         0.12421300437631    1.95613344216248   -2.88980772907153
H         3.52607661854540    3.51033064124797   -3.95597096849106
H         2.94671480458266    4.26969897264204   -1.64911400563976
H         4.63946951884165    3.75293234874693   -1.96167809684836
H         0.92362282142529    4.17201460548317    1.87491498663276
H         6.29572698940957    2.92369174407460    1.99136814997391
H         3.50265446944912    0.85103834034576   -3.98946198318022
H         5.89924855428135    1.56149153895556   -4.67045276175982
H         4.74262130498676    2.43219442862879   -5.37405544110162
H         5.54127899577074    1.76331611887422   -1.88841010055378
H         5.65399355614182    0.25885208957971   -2.78420176860581
H         3.60888166835233   -0.53215004978942   -2.03324508266063
