37
 energy: -49.855647652700 gnorm: 0.326675361202 xtb: 6.4.1 (79825abcba525fcdf90b791dcacef51065a7a4e7)
C         2.45228614890830   -1.28365528337618    0.36178745710844
C         2.81241649313096    0.17758545576642    0.56944803353823
C         3.05018445286523    0.98652819473812   -0.77329046983123
C         1.56012402891161    0.93491327902267   -1.67058304460973
C         1.13068039513055    2.23036907577296   -2.33963740210993
O         1.88582217669262    2.60519829986536   -3.42431515087301
C         3.24928010046917    2.82434659714475   -3.16078893590510
C         3.50915847476324    3.39789277333751   -1.77903068824038
C         3.34552825951670    2.46188364230163   -0.49553699069048
C         2.28227541953217    2.96659134753332    0.46631506572191
C         1.49672814670296    3.73515670341348    1.16792628284242
C         4.60573193975978    2.63848864126820    0.33579289783167
C         5.60452970046220    2.80011197219938    1.15817795915291
C         4.18896686084796    1.57629384813348   -3.47380752535575
N         5.13826965489304    2.09780275670480   -4.58110247562287
C         4.99268779580549    0.90828921887522   -2.38410862470841
N         4.13893092430010    0.22341041511808   -1.42528669912305
H         3.19903644055626   -1.77418374630232   -0.25921308707152
H         1.48904838866876   -1.34430756677259   -0.16058818929573
H         2.33909195294345   -1.85052047262807    1.29622137103795
H         3.74090115646568    0.24141248506014    1.14718123533787
H         2.05707160830494    0.67223446848799    1.19053424249567
H         0.86707872881715    0.58879503930882   -0.90797240114914
H         1.77458264790343    0.21719798849032   -2.51961623273754
H         0.98495067650520    3.02029165241240   -1.57910138824346
H         0.14545645580899    2.08038562170208   -2.82104214197417
H         3.51006978067358    3.57247497809575   -3.91424967151906
H         2.77331680290859    4.23581583776754   -1.60386580073802
H         4.60694701537040    3.75529917579125   -1.80622059750427
H         0.71096882708795    4.21689186417149    1.70394474972163
H         6.43064127336915    3.07387791587437    1.77794121878161
H         3.52597712859412    0.84985204331213   -3.94980782884890
H         6.00032756364873    1.55628659749452   -4.64729965201991
H         4.65758629116567    2.14937438628863   -5.48251796337261
H         5.66953077597680    1.56102915883866   -1.80105584849346
H         5.64824242084846    0.16541903161154   -2.85911561943883
H         3.69261189194042   -0.53252584304498   -1.98643973915240
