37
 energy: -49.854366533482 gnorm: 0.316029132289 xtb: 6.4.1 (79825abcba525fcdf90b791dcacef51065a7a4e7)
C         2.52164798450143   -1.33897458367873    0.32622442800391
C         3.04067343491463    0.06934727201373    0.56134867146409
C         3.11200865674560    0.92696798898081   -0.77029190971760
C         1.57432792016432    0.77731184672051   -1.57105349837927
C         1.03622833424145    2.00289514895615   -2.29123104136392
O         1.79458155354408    2.46000435566655   -3.34157072150935
C         3.11036357143232    2.86515205230584   -3.05685581628435
C         3.37835268214724    3.41991867413922   -1.64727387012598
C         3.35227672977314    2.37514473368968   -0.43979241006618
C         2.29718584377744    2.88406367887865    0.52880480994055
C         1.14244494367916    3.13494368436292    1.07986575601734
C         4.69531902490807    2.51899108002967    0.25731417567633
C         5.69963939308249    3.07866781725704    0.87224411723596
C         4.14145391741741    1.83960472479792   -3.62471143625047
N         5.14641988994550    2.63011874399857   -4.49899996000796
C         4.92849809385412    1.09885750878143   -2.57043621317307
N         4.23031918752809    0.34028005439312   -1.54359361743916
H         2.94380709670453   -1.68947376406106   -0.61336476698550
H         1.44167940690912   -1.25517485268172    0.15007825401905
H         2.70778884297693   -2.06294629106529    1.13153949423094
H         4.05803290284678    0.13816709673740    0.96156968131690
H         2.37579759576345    0.51135856261546    1.31204019071089
H         0.81203001245213    0.55046734887205   -0.83002172392366
H         1.67072780361380   -0.12326745497085   -2.25048640569711
H         0.86476304227176    2.82642195494492   -1.57287659573999
H         0.06173221501974    1.71848107039919   -2.73211392373629
H         3.31463520252364    3.73358475392692   -3.68892239130194
H         2.61430152259266    4.21934413384677   -1.42054600813409
H         4.44953783390040    3.84801330670485   -1.70127075393329
H         0.38815494862773    3.54612328645878    1.71135622163964
H         6.65668292566145    3.00355891771086    1.34122272245345
H         3.62474661072189    1.17189512738042   -4.31827240862101
H         5.83184855764930    3.11255445751543   -3.91744258649607
H         5.63450031659063    1.86605601643161   -4.97255212836325
H         5.47658766099359    1.83020593481208   -1.94684684922292
H         5.70913835442425    0.45806511079192   -3.00313184825109
H         3.95448681866913   -0.53322211495984   -2.04002438159463
