37
 energy: -49.851031762913 gnorm: 0.337095441513 xtb: 6.4.1 (79825abcba525fcdf90b791dcacef51065a7a4e7)
C         2.75513396118531   -1.34822517201324    0.43176052150273
C         2.77124787468379    0.16474622247813    0.56850546194396
C         3.04879225084503    0.96285150689513   -0.77308528048448
C         1.58208741292429    0.84899283186237   -1.70254278445743
C         1.01537055155849    2.07113808561742   -2.40642790777441
O         1.78355804902226    2.63185011383431   -3.39776632941260
C         3.14475793579558    2.89041792107722   -3.15950783669027
C         3.48940981198347    3.41560102378804   -1.70731042830603
C         3.31781905729766    2.40804963500420   -0.48026485283250
C         2.25684433154754    2.94045707654300    0.46908797378258
C         1.41760865066539    3.46587593710693    1.31741223459406
C         4.53160576879749    2.46882034682687    0.43266490399575
C         5.64105540841090    2.49852173451714    1.11697158002985
C         4.19283158419218    1.83070622296251   -3.66622966342369
N         5.18739532753108    2.56392308710931   -4.60029895095458
C         4.88971492082579    1.09353833976386   -2.54793705991532
N         4.11114660323734    0.32794178292841   -1.58617173337566
H         3.71536114659070   -1.83493149664693    0.27372080234485
H         2.08459953438811   -1.64298755413259   -0.38547917328593
H         2.26467749148884   -1.75401462198051    1.32736265520916
H         3.60721219963221    0.47100276757075    1.20670910354114
H         1.80349585059783    0.49192283092657    0.96522085930188
H         0.88721701617399    0.39085258146683   -1.00329514593037
H         1.82963986988028    0.02784982978624   -2.44173629308728
H         0.68393529493734    2.84750220205904   -1.69155778973089
H         0.06682500111517    1.77436681213066   -2.89335697918486
H         3.26035083086070    3.77428749491410   -3.79261388692971
H         2.86389400663010    4.34853464198735   -1.59494673162960
H         4.59654581854382    3.73924925470486   -1.76316731027244
H         0.70392886095535    3.97415317445586    1.92496278268292
H         6.39880114828334    2.35664375208044    1.85670574777056
H         3.64702389388550    1.16311679847339   -4.33724955528251
H         5.97091423526411    2.94190520031731   -4.06738873505680
H         5.54631274264947    1.79884227667840   -5.17657636099882
H         5.58796336608999    1.75111868900796   -1.99641772045689
H         5.50952319780499    0.30943676148588   -3.00429442127933
H         3.80903059254877   -0.64695344120826   -1.79554760915425
