37
 energy: -49.855416094459 gnorm: 0.327741215083 xtb: 6.4.1 (79825abcba525fcdf90b791dcacef51065a7a4e7)
C         2.81063783985052   -1.46400758047244    0.20366524855259
C         3.05106634360047    0.01177014455038    0.47258069701177
C         3.14784717470716    0.90792767416647   -0.83179800520814
C         1.70112082844622    0.72707856940856   -1.78172148188368
C         1.10922850983415    2.00834942240892   -2.34587551540291
O         1.79101497416478    2.66525761712535   -3.34131547685793
C         3.11664636534216    3.01425500186125   -3.02923889613741
C         3.36252865697901    3.41748008834873   -1.62688818455878
C         3.34672752153835    2.36574782351704   -0.42528358457220
C         2.28240647406133    2.78605212106967    0.57519671837040
C         1.26409930065629    3.31020365603082    1.19837506697337
C         4.57746538642026    2.60919391586975    0.43287161446283
C         5.42493506954869    3.00377438328826    1.34179279079032
C         4.04868496120711    1.87434127513441   -3.50677291174509
N         4.79749320294718    2.37004241950662   -4.76884106994688
C         4.98563386870146    1.28068287225924   -2.48240107228180
N         4.31322192747179    0.36877977777572   -1.56938728049695
H         1.74178359832272   -1.64205876128579    0.10495236058677
H         3.05493880543956   -2.04264333703785    1.10359841140895
H         3.37619519504308   -1.81552381722336   -0.67034677742829
H         4.03077788416330    0.12393259174569    0.94956937075482
H         2.26194211058152    0.45480555342049    1.09062130336297
H         0.96705228337442    0.29677567102619   -1.10521028160688
H         2.02332917174588    0.00193234319499   -2.58937847970450
H         0.87609957471709    2.63568268074252   -1.46511803520549
H         0.18873350815154    1.63325648168763   -2.83260542853377
H         3.32540361356873    3.89528933963546   -3.64210863659428
H         2.61043182142470    4.21810527522127   -1.36686813645669
H         4.40749956483658    3.90824706409591   -1.65520576440510
H         0.44398289193876    3.71084896650486    1.74946005144850
H         6.26505278828429    2.93474965411347    1.99826246468290
H         3.38453155287129    1.09895555380043   -3.89603709341438
H         5.64651457384118    2.85658653864724   -4.48039144385914
H         5.10388115968814    1.59214385598814   -5.35813408325590
H         5.39888990641822    2.06277606951699   -1.81780640862481
H         5.83879510160415    0.74978192961498   -2.92681048525091
H         3.99458360104780   -0.41391728397130   -2.17880336646178
