37
 energy: -49.853334796636 gnorm: 0.326411980359 xtb: 6.4.1 (79825abcba525fcdf90b791dcacef51065a7a4e7)
C         2.51245919041642   -1.39390428411159    0.30023702401616
C         3.02575860345809    0.02253088180598    0.49588060442532
C         2.94638795188280    0.85626031441321   -0.85039729347318
C         1.31710073604175    0.73530479043079   -1.44945577145398
C         0.95759251874485    1.81332770383393   -2.45885248659535
O         1.94216939973790    1.98268147287719   -3.40182096018513
C         3.06697826022979    2.78794469698194   -3.15113047528735
C         3.17661064485299    3.41182977905982   -1.76712762503201
C         3.28395779586792    2.32939796944187   -0.59791335337455
C         2.45589342755475    2.84801346068585    0.56645049483846
C         1.71915908886081    3.60305961299045    1.33271637306050
C         4.65174686562156    2.43476675982050    0.05665708980353
C         5.62059309430303    2.82782995123728    0.83567867786919
C         4.35154254903745    2.01778484992533   -3.56660337530263
N         5.42150366592936    3.03462124609407   -4.03615251539676
C         4.90297628253549    1.13124185577083   -2.47591387932172
N         3.94013263848293    0.28469534560405   -1.78773484806364
H         2.94371314591254   -1.97531719155945   -0.51208982134523
H         1.44139251720416   -1.31559892951059    0.07425815095260
H         2.67891602647151   -1.94907162641704    1.23372358094309
H         4.09562085641968    0.06133837768547    0.72787640169308
H         2.47212420986492    0.63168705572211    1.21933712253504
H         0.56494751939301    0.75701335827691   -0.66493114226140
H         1.40028152039635   -0.28109227287349   -1.94137350709242
H         0.72207972093401    2.76122501017792   -1.93957002509455
H         0.03798034804376    1.48854976077679   -2.98205848203122
H         3.11512960045991    3.62757016314180   -3.84978699802744
H         2.29322006973100    4.10260824720938   -1.63787223262661
H         4.13257768931095    4.05131500587185   -1.66318552619622
H         1.20161207283845    4.09542802091037    2.12424695587459
H         6.52517709278287    2.82474045486346    1.40421437400125
H         4.08149521184767    1.59969753081446   -4.53929387020849
H         5.85906569790711    3.45038270561660   -3.21368821112159
H         6.08118236649683    2.50558507395970   -4.61166163891689
H         5.39192905192194    1.77733683784191   -1.72250638529201
H         5.66048531130999    0.43592769822504   -2.86315788505479
H         3.47970761605667   -0.40856868539876   -2.41457360017008
