37
 energy: -49.853536196656 gnorm: 0.323234020608 xtb: 6.4.1 (79825abcba525fcdf90b791dcacef51065a7a4e7)
C         2.58116775541456   -1.35265790806984    0.38938721707464
C         3.13409658790061    0.05510096599374    0.53265597201113
C         3.06523325891496    0.79779520459959   -0.86646223445757
C         1.41829560651667    0.79814349411018   -1.42831130566176
C         1.02670376447680    1.82567759255090   -2.47764004096331
O         1.91081269980772    2.09699352846067   -3.49351450632659
C         3.06747973826797    2.82116418267636   -3.15559768559041
C         3.18650315581099    3.32322246064269   -1.72070750513642
C         3.28806637480824    2.30065608893916   -0.49829719506938
C         2.24367925526659    2.78412483095666    0.49463251977065
C         1.71738104476025    3.60157289266765    1.36343883101870
C         4.61550264371604    2.51234370824694    0.21128949361290
C         5.61362285646415    2.94131702266659    0.93224320414533
C         4.28491017626469    1.95916200358240   -3.58438974089008
N         5.33007365178088    2.90870315692733   -4.22098564953650
C         4.87736473249735    1.07302246517794   -2.51509299196517
N         3.90422583304912    0.17314432339109   -1.91466042401811
H         3.09052441200257   -1.94248342137024   -0.36992662258372
H         1.52059268984603   -1.33568094245398    0.10783027596784
H         2.63122399571207   -1.84778508221457    1.36900921687053
H         4.18258194609152    0.03267997699991    0.84905613795129
H         2.54544414703913    0.65700898204444    1.23420188196850
H         0.83476346460607    0.96762807385270   -0.52695131440710
H         1.27286518543977   -0.24920282738125   -1.83313320158961
H         0.73356396722044    2.76920332254339   -1.98018842285591
H         0.10020332927535    1.36523353637224   -2.87070490238692
H         3.16378847123354    3.70039418031708   -3.79831819326368
H         2.36061056433533    4.08438680120788   -1.60761004857505
H         4.18538894011191    3.89906144593397   -1.65547742773349
H         1.11236162023494    4.18532951960146    2.01916895217368
H         6.51375589036537    3.10288005163583    1.48466739940220
H         4.01472626917663    1.43535774470293   -4.50443274232991
H         5.73692388808926    3.53709312796653   -3.52790226032311
H         6.10601668744962    2.34636839650152   -4.57869787088951
H         5.34526704913683    1.70713149315294   -1.73849170974084
H         5.63320313515181    0.44510680966055   -3.00669228525329
H         3.27204429089002   -0.29045690457395   -2.60092089825671
