37
 energy: -49.855333317868 gnorm: 0.326434403419 xtb: 6.4.1 (79825abcba525fcdf90b791dcacef51065a7a4e7)
C         2.87307536206723   -1.38108597740259    0.36923892699824
C         3.03727212324884    0.11995523878157    0.53643931134548
C         3.01872331587043    0.95520776974617   -0.81110578895753
C         1.39608688643539    0.83712233870327   -1.42850758700185
C         0.94151174609331    2.01748438891513   -2.27134099965743
O         1.81317526671201    2.19407040568142   -3.31837584229556
C         3.04556548457030    2.85177881401855   -3.15987173311620
C         3.43293079320623    3.41832813827149   -1.80702224303995
C         3.35709598613230    2.45688700638256   -0.53418130842565
C         2.24047505891742    2.96203074837918    0.36492009694304
C         1.21531783357534    3.40574640127259    1.03738169726274
C         4.62690869037322    2.54783448257412    0.29631024791160
C         5.74170834558260    2.67541489724074    0.96037442610696
C         4.17490380974314    1.90930799737904   -3.59805980772059
N         5.21166531570092    2.77427268988863   -4.35714551030777
C         4.83800022951036    1.06056199663015   -2.53996029236506
N         4.02209488861592    0.25431509182388   -1.64465941574349
H         3.79927015586435   -1.79527116812494   -0.02383826469192
H         2.02387758495328   -1.63648399202734   -0.27730340546563
H         2.75355284041714   -1.88884846849251    1.33630015968106
H         3.98000081438834    0.33243135063531    1.05223949454582
H         2.24805625116975    0.59452581897090    1.13048702952382
H         0.77659970049638    0.69492292255004   -0.54663482412942
H         1.48095950746655   -0.12143378149002   -2.02510786753563
H         0.82491855870086    2.91733019511946   -1.63863774369617
H        -0.03310375085834    1.76559693464816   -2.73132916709117
H         3.11142829379567    3.66642733043512   -3.88610881345601
H         2.85362807081615    4.35989455557590   -1.57872024975641
H         4.52365094029415    3.78006942940376   -1.92143860920562
H         0.40983794075323    3.70334965794534    1.66939175091259
H         6.56383710379114    2.76027700460415    1.63743965525834
H         3.79749906042469    1.24976015404388   -4.38317869511372
H         5.95017064227018    3.20136945168059   -3.79771375075642
H         5.66667174019435    2.06009610563505   -4.93089368753636
H         5.35119355921656    1.74672379889201   -1.83999531012831
H         5.54950981831913    0.33977807238255   -2.96594652004699
H         3.65849283364182   -0.55190632941193   -2.19541671706045
