37
 energy: -49.855609276735 gnorm: 0.322622707000 xtb: 6.4.1 (79825abcba525fcdf90b791dcacef51065a7a4e7)
C         2.46054259610132   -1.21268467470678    0.62985841296250
C         2.74334312635444    0.27968552192799    0.59991957830506
C         2.97519426554396    0.96225924884985   -0.81224429411710
C         1.49155386387917    0.78578145229546   -1.70428962769434
C         1.12623944861722    2.06790455825535   -2.43433552239188
O         1.96186522637730    2.52242678638606   -3.42549695213864
C         3.30217899935027    2.86702965105600   -3.17791381920068
C         3.60429559495594    3.38908272973883   -1.79235692101270
C         3.36474135713846    2.43599692258162   -0.53359354377162
C         2.30018669834318    2.97953699366043    0.40538642535306
C         1.52580993741844    3.56835894323470    1.27352517747363
C         4.64370146038456    2.53818718294622    0.28140966369462
C         5.58387660279602    2.65785720942859    1.17683473830443
C         4.18181017363077    1.68695782258301   -3.58864915814282
N         5.22093229583904    2.20506034016158   -4.61385374250585
C         4.93382217773692    1.05295615168260   -2.44315317516024
N         4.07597176230780    0.29534423243426   -1.54458982124769
H         3.35165425186464   -1.76010807941293    0.32961937515518
H         1.62625034724691   -1.51254084396014   -0.01699915980089
H         2.14891861476330   -1.50368938391150    1.64253929150073
H         3.62180774065335    0.46428416168488    1.22773848196234
H         1.96857019196322    0.88839586777246    1.07968017981427
H         0.68594616505694    0.59252812354682   -1.00048993752583
H         1.61511899064796   -0.10797674667969   -2.38831669825509
H         0.90142058511050    2.81959025986313   -1.65455674545074
H         0.22397730284927    1.85151368138512   -3.03766775208729
H         3.47485758904094    3.67118604205236   -3.89827832087907
H         3.01442620604807    4.34532797129113   -1.68322441528486
H         4.71686207425479    3.66737505193729   -1.65683008450766
H         0.96361833325511    4.10027015947117    2.00688273379921
H         6.38652500399984    3.00393113724494    1.79124746808713
H         3.51910437088419    0.97376032765085   -4.08465291015846
H         5.80444407733065    1.38950155617492   -4.80131980775526
H         4.68390319736679    2.48661119940997   -5.43762244289924
H         5.52471730622657    1.75853403469306   -1.82903658443525
H         5.71820867867218    0.39841641740616   -2.84757273449970
H         3.62991263027463   -0.47975536600994   -2.07917835703560
