37
 energy: -49.856818289073 gnorm: 0.328863109033 xtb: 6.4.1 (79825abcba525fcdf90b791dcacef51065a7a4e7)
C         2.48324934595212   -1.21220297917042    0.40101869938639
C         3.03336786391200    0.18582248951447    0.62670804933668
C         2.93749113549689    0.96809725387740   -0.74905446361430
C         1.27840558714415    1.02449979515974   -1.27090887617960
C         1.01081604974622    1.96362735314982   -2.43568205518941
O         1.97456025545207    1.93738011814803   -3.41433933166157
C         3.16881121314352    2.65779846424262   -3.23755808618766
C         3.48388604122932    3.31367817884985   -1.90711320517486
C         3.32103736719178    2.44480593287079   -0.57715631307842
C         2.25473410113396    3.03846513100349    0.32891317304136
C         1.44760291727792    3.59869834318937    1.18606747908662
C         4.60357487845775    2.64612419332323    0.21340072908173
C         5.76570524330653    2.78408694183296    0.78825336080100
C         4.40598228525177    1.77595689736324   -3.57464705626696
N         5.58998111372177    2.72558766798325   -3.88383569943556
C         4.84797985470520    0.88165673087933   -2.44128631012362
N         3.74638436350533    0.23189775204874   -1.74731231950164
H         2.92262401882348   -1.59038685016020   -0.51975418436684
H         1.38818744579635   -1.26728553431130    0.35424963762577
H         2.80327885204783   -1.83612336295766    1.24696212433606
H         4.09382504254991    0.15265056680961    0.89922136644769
H         2.37018795952973    0.70263289612660    1.32960991860699
H         0.67769208554200    1.23439113904892   -0.38956131129687
H         0.99153970760109   -0.01736731004271   -1.60882305806939
H         0.87075303191510    3.00316854840438   -2.08444664869006
H         0.10187074378958    1.58206489623847   -2.93881254813920
H         3.17297558461984    3.36374487809465   -4.07244294685855
H         2.83981061782041    4.23532429535423   -1.80713298236942
H         4.59226546454324    3.63717206586703   -1.92867856765635
H         0.63072293758870    3.75156740936725    1.85400490444918
H         6.75171017276461    2.89361982292452    1.18487837890625
H         4.13669882145784    1.15891531618032   -4.43522562502799
H         6.32994628078653    2.05521469571972   -4.09316148496656
H         5.29100106141395    3.26264028206579   -4.70142448894267
H         5.35850599241124    1.55200194998446   -1.72425302022272
H         5.54302313495878    0.09573623795361   -2.76760432059321
H         3.10914507469081   -0.21962347435626   -2.43694099515247
