37
 energy: -49.854034345271 gnorm: 0.323411466694 xtb: 6.4.1 (79825abcba525fcdf90b791dcacef51065a7a4e7)
C         2.60887514927549   -1.28109613887239    0.32859143067640
C         2.91857758775739    0.18935300254719    0.55198569994694
C         2.87634810563041    0.95366511316286   -0.83650712115156
C         1.21181650814763    1.01541666109207   -1.34009369595877
C         0.96090388500355    1.92148164370364   -2.53439281753147
O         2.01463060429550    1.83659016155636   -3.41172702598547
C         3.16272559549104    2.61235818523189   -3.17392160834179
C         3.29884618949473    3.34590730076365   -1.87792727794969
C         3.26524864812476    2.41791235642779   -0.57871959140677
C         2.29985815299860    3.02849843583855    0.42407730991409
C         1.78218025070394    3.89498342389121    1.24945533229826
C         4.57033566027593    2.68603614590245    0.15290152240738
C         5.78301627636077    2.75584294022636    0.62678866171296
C         4.41920785756032    1.78895761120206   -3.52302361147070
N         5.66109685630277    2.70212236129163   -3.67498182068967
C         4.80009749476330    0.78954879666213   -2.45730961341524
N         3.66953892759056    0.15385583739155   -1.79774078149878
H         3.23303793313595   -1.75224273511914   -0.42793850986541
H         1.54032811397457   -1.48204919900038    0.17957096523374
H         2.77811250679585   -1.78102888139819    1.29230392827530
H         3.94035450094284    0.29819733335802    0.93153564848240
H         2.20232554143467    0.64019104238766    1.24818946872959
H         0.68692467952933    1.33335588976808   -0.44282682798940
H         0.91457510546493   -0.05578194626826   -1.55491032484373
H         0.72782411083901    2.95469063811316   -2.21535857331176
H         0.07051829281142    1.62231315575078   -3.11973330271215
H         3.13234510301176    3.42327153058296   -3.90666097796258
H         2.55008903742128    4.18992675288050   -1.84250630292897
H         4.33139481598078    3.86008228966810   -1.82237802614492
H         1.42795977732693    4.63486291900498    1.93056355886884
H         6.54460788599888    2.87070291770117    1.36726146371755
H         4.13850518915287    1.30799851580471   -4.46309474189481
H         6.49673295237618    2.11728541450801   -3.65391726501063
H         5.57700357819786    3.14182725647405   -4.59468499912412
H         5.33863149028577    1.31581373507904   -1.64665386706978
H         5.38090066419359   -0.04041226722357   -2.88283509717272
H         3.07742749504557   -0.23373609804386   -2.56240383301245
