37
 energy: -49.853676223086 gnorm: 0.342860483649 xtb: 6.4.1 (79825abcba525fcdf90b791dcacef51065a7a4e7)
C         2.77061607235063   -1.36676690745862    0.32949347146353
C         3.19681160269665    0.07810277815913    0.52634427548191
C         3.08376466223517    0.91925796790152   -0.81288945394767
C         1.40877967468039    0.77855272072023   -1.26311768071633
C         0.97795252231728    1.82832109327475   -2.27437215806830
O         1.83891096900279    2.03870764387554   -3.32401492041147
C         3.05065532564466    2.74305365474600   -3.21418840636867
C         3.35834442236988    3.38449443701792   -1.85625702533416
C         3.31507199573979    2.38827066881952   -0.60889591863038
C         2.23775876339860    2.94031991548162    0.31036118989793
C         1.39261096926553    3.51748524008532    1.11822314574508
C         4.52750984070046    2.65104927272901    0.26937160699497
C         5.50068340531080    2.68000628603042    1.13662646288059
C         4.29211899153792    2.00289418362841   -3.70071666870353
N         5.41905317844656    2.96430875194454   -4.15343160062656
C         4.83366926205661    1.08904353412265   -2.62775743604647
N         3.87255883071357    0.28162270328763   -1.89179711297886
H         1.72264541390177   -1.43796238571042    0.04561929195857
H         2.95570310245969   -1.99882694218958    1.20734590892830
H         3.38413683077187   -1.79842265883305   -0.47336479720853
H         4.23286475459465    0.23217635839524    0.84695074841274
H         2.56322383283465    0.57756260344257    1.26801673727249
H         0.82095931851083    0.77336995235386   -0.34871897930988
H         1.42038147815761   -0.26106978831637   -1.71146523442102
H         0.80095533645694    2.76805517906532   -1.71831307797784
H         0.01444890806144    1.48390277015484   -2.69621167100251
H         2.97817562868007    3.54783724040579   -3.95072115212694
H         2.66795872554097    4.26515233708269   -1.70769723697529
H         4.39952540722768    3.88028950348290   -1.91747558582392
H         0.62303339378060    3.91288453709098    1.74128974360199
H         6.34947522710625    2.52262905272274    1.76614964262481
H         4.00329827609157    1.47324243370804   -4.61170568505768
H         5.60642231839374    3.52903556283820   -3.32473256638657
H         6.20935245482411    2.34811365511699   -4.35836248433998
H         5.42490445949269    1.61688321250931   -1.85577129361733
H         5.52222346926179    0.35781475984480   -3.07322035254915
H         3.26451237395497   -0.14568582529489   -2.62201623570684
