37
 energy: -49.851271301115 gnorm: 0.320726504197 xtb: 6.4.1 (79825abcba525fcdf90b791dcacef51065a7a4e7)
C         2.72769740474925   -1.37873974294777    0.30237305059888
C         2.94386247790499    0.11056802105939    0.51040267051957
C         2.88607473406216    0.99136558634666   -0.80668687528440
C         1.23709495847706    1.00647927675629   -1.36230851576210
C         1.01387514656849    1.95674698434750   -2.52739455923570
O         2.06676148899800    1.84481761196599   -3.40270252885509
C         3.16053925892434    2.70798451089399   -3.21539890717789
C         3.35653214453234    3.39964629763739   -1.86122923204494
C         3.24268662956158    2.47622009602662   -0.56332041708085
C         2.33058023423288    2.94267345542064    0.55956828189356
C         1.64796712959641    3.72640023182363    1.34687207945996
C         4.54416127363231    2.57754092639056    0.21533857632131
C         5.62224365041633    2.88050026225991    0.88316367456863
C         4.36426575761625    1.86255651655172   -3.58040448880588
N         5.59075355858460    2.76278390346542   -3.87120986927724
C         4.77637421003450    0.94441181847323   -2.45487432177715
N         3.70682187818033    0.22917354323630   -1.77532206072359
H         3.40604876977819   -1.79632976656328   -0.43881103221843
H         1.68973516658922   -1.66147339732355    0.08539823404324
H         2.91720410565660   -1.83778592706416    1.28251570319901
H         3.95095197563028    0.21339898651664    0.92888785339516
H         2.26322506937289    0.41537210715128    1.31339632365353
H         0.43567860912108    1.02338654841091   -0.62805338537811
H         1.12881098303063   -0.02043467461087   -1.82673010141139
H         0.82649505519347    2.97072886658217   -2.12694568582131
H         0.08094304144385    1.72601471715296   -3.07631356853244
H         3.03191225034077    3.51978967547964   -3.93639674296610
H         2.61636633093611    4.24807832190818   -1.78012172585035
H         4.44164908990174    3.79426589742117   -1.88159808361870
H         1.09010339054619    3.98456043589044    2.21804578567015
H         6.51480344844819    2.84080730067096    1.46906133687731
H         4.12868231356625    1.31900864686678   -4.49850335278322
H         6.38665735610523    2.15713947004848   -4.07245007465509
H         5.43661743190521    3.11958652543545   -4.81735993882496
H         5.36365470179108    1.57141353229342   -1.75766067895212
H         5.49169134362384    0.21870649766283   -2.86586436096951
H         3.10814558346846   -0.20672505945431   -2.50820141075150
