37
 energy: -49.851079006938 gnorm: 0.324809874846 xtb: 6.4.1 (79825abcba525fcdf90b791dcacef51065a7a4e7)
C         2.58769110984691   -1.27948580115688    0.48760936651770
C         3.12977576280757    0.13924808712750    0.52475315121454
C         2.91343305662960    0.91088748926303   -0.84332473854329
C         1.24369872746319    0.97614572986299   -1.32892412404884
C         1.02840828077754    1.99175617142790   -2.43908030390530
O         2.02630700305508    1.94678466806497   -3.38218028803641
C         3.18878475164797    2.71840257378933   -3.20972494989504
C         3.43646698410135    3.36723704439016   -1.80761591826472
C         3.31548463597885    2.34436325002816   -0.58723217188374
C         2.23032031721609    2.95611629325144    0.28372847112483
C         1.49102628072441    3.56047446174962    1.17155222135531
C         4.64379654189044    2.46017298310707    0.14255376514777
C         5.56571092283108    2.88870466481730    0.95893035486570
C         4.40464521459030    1.87961709683322   -3.61760909884798
N         5.63758557673219    2.79490453794599   -3.82097184593983
C         4.75838912746189    0.86012030688186   -2.56161063323305
N         3.62600785207413    0.20016744754667   -1.92957097707154
H         2.83396848373713   -1.78633269554559   -0.44316962315745
H         1.49361492371147   -1.24321395898620    0.56547881214038
H         2.98713156835247   -1.78747090945475    1.37626805134781
H         4.20923780365846    0.00668388970914    0.65560324885552
H         2.68798820283620    0.67977241897452    1.36951869161709
H         0.76034050958294    1.29232602430417   -0.40801181990212
H         1.03538076285002   -0.08087057389465   -1.67718444509685
H         0.94726946980476    3.01731186519945   -2.03253157539885
H         0.11238317606259    1.77336315865613   -3.02055624505351
H         3.07645802505886    3.57392919448279   -3.88119149379012
H         2.78415255589988    4.27085634837017   -1.62811995317196
H         4.52777575459984    3.74155196108450   -1.75710038588181
H         0.86232300247530    3.51985524363190    2.03171763386471
H         6.30036011606334    3.24489749653998    1.64808331045211
H         4.13205838233765    1.33052073208372   -4.52206416731238
H         6.44136462717370    2.24327888633960   -4.12166110988696
H         5.41358573509432    3.47506151055311   -4.55136665304954
H         5.34322422269287    1.32326625144189   -1.74454262244106
H         5.38947026748971    0.08724211295553   -3.02164923877769
H         3.00083963015918   -0.20834203961123   -2.65608163256061
