37
 energy: -49.854349367983 gnorm: 0.316898239159 xtb: 6.4.1 (79825abcba525fcdf90b791dcacef51065a7a4e7)
C         2.52114611197859   -1.37076586541196    0.37462368069745
C         2.84964648099414    0.10444759645560    0.52913590266056
C         3.01770495077606    0.92420730941061   -0.81757082462261
C         1.52631833748281    0.78333429451774   -1.70300794492168
C         1.10216116127745    2.07519203913395   -2.38231313862724
O         1.90163197210708    2.51212211188784   -3.41051565271823
C         3.23173795740109    2.85570395625239   -3.11175297756204
C         3.52331736636981    3.37337570465970   -1.70480444749810
C         3.29769408555235    2.38249614523598   -0.47293763329247
C         2.14930111255715    2.90986314623700    0.37173591717308
C         1.49059128819216    3.50504032993018    1.32667100986738
C         4.43530284040036    2.48428721326312    0.53000647505061
C         5.57287958739583    2.93537087816205    0.97998309560823
C         4.26534443124898    1.77910505465458   -3.52986149943812
N         5.32966647952878    2.38681709494719   -4.47704368726170
C         4.97707657439683    1.06982343002659   -2.40291955186435
N         4.12411731784678    0.26126694697087   -1.54501735669442
H         3.41137558346696   -1.77325660568070   -0.10432155511662
H         1.63474391339434   -1.57909087706082   -0.23797229541074
H         2.43409518667508   -1.81500396828623    1.37581819354619
H         3.73493170489918    0.19050217019939    1.16850902897958
H         2.08542853650834    0.64201002134345    1.10182184825560
H         0.82037412303995    0.51223815154992   -0.92208908582329
H         1.54958487823688   -0.07713350383508   -2.43854783359313
H         0.97888583022858    2.81327632528465   -1.56765699310589
H         0.09068484807170    1.93093820512367   -2.80777555722165
H         3.42874970870832    3.72703498162652   -3.74213304215879
H         2.89402913435752    4.31025847040601   -1.68227105751193
H         4.61515274463662    3.74524202374787   -1.76163088042287
H         0.84053706718917    4.12006470493336    1.90630602638618
H         6.39638559106377    3.17535090833536    1.61697763694403
H         3.66495247787218    1.02735817885895   -4.04779538206954
H         5.55286963734398    1.64379343039384   -5.13951016878312
H         4.85794755231000    3.07423725849048   -5.06966564360613
H         5.61242224446156    1.74464120777047   -1.79869009620578
H         5.71155283039247    0.44765886947511   -2.93272660675639
H         3.78908784248344   -0.54592330547405   -2.11223176608015
