37
 energy: -49.858931676950 gnorm: 0.330551390697 xtb: 6.4.1 (79825abcba525fcdf90b791dcacef51065a7a4e7)
C         2.47927233333743   -1.25193688872735    0.46167187619316
C         2.98008966044956    0.17917374730612    0.55730466281825
C         2.95542005299931    0.97487993284043   -0.81386699778537
C         1.29047737791423    0.95506010333155   -1.31948661211904
C         1.05878506031149    2.07618245679715   -2.31931891195318
O         1.94409849007235    2.01993896378533   -3.36827967230636
C         3.15563484583489    2.72493422498786   -3.26034037251073
C         3.45679076843647    3.37634077926598   -1.90661782006764
C         3.32382228936182    2.43874942268243   -0.62073840933727
C         2.29695808670869    3.09146797858384    0.29025237709109
C         1.48325749454004    3.70527587333675    1.10337398635905
C         4.61815395532048    2.53871079048424    0.16991023438743
C         5.58383954393805    2.58404405164680    1.04480023669903
C         4.37288050385482    1.76579578249796   -3.60765465672170
N         5.53555486145455    2.61459862856333   -4.17946888362018
C         4.90475725100605    0.92981363054864   -2.46840833237235
N         3.88612256098109    0.23455230297323   -1.69620737981482
H         2.99580099597282   -1.79907036620550   -0.32429182868922
H         1.38915820537404   -1.26264582309176    0.33550331856582
H         2.70109747170705   -1.75385696519934    1.41360971718708
H         4.03667228240444    0.09153031794199    0.83277717408360
H         2.46518741425024    0.76762129847075    1.32514369293788
H         0.68697737963205    1.07964330089299   -0.42396922181220
H         1.10031760180289   -0.07330725371804   -1.75338168075559
H         0.93383404836429    3.04417012663723   -1.79872600762614
H         0.05721625199085    1.88001184195560   -2.74744130422002
H         3.16811065591312    3.46334097167583   -4.06657249938667
H         2.81118714917861    4.29050959569437   -1.75913186821016
H         4.54761670313328    3.75032253569909   -1.84453130039199
H         0.80214921557512    4.09859998630373    1.82322807201085
H         6.41469395853107    2.89303994287831    1.64122047349718
H         3.95175797394824    1.08597071517565   -4.35219683983785
H         6.38258221409824    2.05012122653116   -4.11109066072060
H         5.40508585272037    2.88335449572134   -5.15773987487268
H         5.43509967109771    1.52460772008340   -1.70088419764116
H         5.48422393467561    0.09146130078535   -2.87904608062262
H         3.27783822605398   -0.35841546160117   -2.29945893385089
