37
 energy: -49.854518099656 gnorm: 0.331645818629 xtb: 6.4.1 (79825abcba525fcdf90b791dcacef51065a7a4e7)
C         2.59853647766955   -1.40652511029257    0.45338864154329
C         2.96690001945472    0.06005017822831    0.60003959362679
C         2.98183200973676    0.86672254818752   -0.76485064710865
C         1.33359667196939    0.83143258764130   -1.32176448367906
C         1.09072437752594    1.98499459891995   -2.28122736674419
O         2.00727874301578    2.03334264330956   -3.30340760421591
C         3.19753470096125    2.76123935870505   -3.13035651817293
C         3.41233945858819    3.38832300272384   -1.75303633757791
C         3.32064160043192    2.38338350247450   -0.51532388126092
C         2.27455327003616    3.08813334729616    0.33286399195692
C         1.34850602164326    3.84405250354660    0.85349653668042
C         4.62390972593325    2.53559092404848    0.25196816834648
C         5.72198344995971    2.75446648775387    0.92007280470476
C         4.33970525137217    1.83235460030896   -3.61133659670919
N         5.50040757107177    2.74628269751456   -4.07690614207282
C         4.85251548167104    0.96805706081890   -2.48454617653330
N         3.78485027199536    0.22595768885162   -1.83133964056578
H         3.10910499488367   -1.88951555949203   -0.37723513737193
H         1.52086957652091   -1.47868516035603    0.25894333938209
H         2.82959071933121   -2.04389254937047    1.31808077941702
H         3.99880122344029    0.12108789983383    0.96251388779755
H         2.20812582545737    0.57192240121705    1.20271709414866
H         0.66763061046664    0.80538630517335   -0.46298895219844
H         1.28749203973991   -0.19562167173172   -1.79610508205477
H         0.93795377438066    2.89981493463936   -1.67840504420883
H         0.14025722643233    1.76923881325650   -2.80560643414517
H         3.14634194747819    3.62178177068465   -3.80285668246479
H         2.69563052479142    4.23709976714512   -1.55261908635815
H         4.42823372126529    3.93738480092240   -1.74262975154314
H         0.57812532178874    4.39708213026709    1.34080963492989
H         6.66836151033266    2.82351355126905    1.41110811417577
H         3.97687005340736    1.32420868669369   -4.50799021956588
H         6.30634874145700    2.15429209644501   -4.27882596036983
H         5.24168494500072    3.17021918750144   -4.97111331376968
H         5.40930909733444    1.55479847607926   -1.72966090706953
H         5.57660678484228    0.23851968813226   -2.87275569870566
H         3.23455939358377   -0.16708262593386   -2.62395070500435
