37
 energy: -49.852681770096 gnorm: 0.334494108434 xtb: 6.4.1 (79825abcba525fcdf90b791dcacef51065a7a4e7)
C         2.48093412560735   -1.42469515833556    0.29892716759828
C         2.86321077163289    0.02966109604682    0.51515327299876
C         3.04020250387399    0.92127172419068   -0.78391295330690
C         1.61241109994789    0.79279669377130   -1.77031246895965
C         1.06682210253875    2.11330765074598   -2.28881487726434
O         1.79855396281947    2.61104848504893   -3.33956909332097
C         3.15794838471803    2.91462714619710   -3.14884323182138
C         3.47749040697786    3.42680549268717   -1.69772041511888
C         3.28627431583118    2.35993574547101   -0.52491635898717
C         2.20019840595406    2.88567184029367    0.39944097745864
C         1.56446054050805    3.56045592946744    1.31625026772006
C         4.54643587869627    2.51647775048646    0.31048737564406
C         5.54961962302012    2.94578793907973    1.02417593051833
C         4.16836488564025    1.78607323137777   -3.57086373146318
N         5.16508884552880    2.46174605743897   -4.54516195235287
C         4.89584087295019    1.04511577399633   -2.47477890164544
N         4.16334034829332    0.26342747634970   -1.49004256993718
H         3.27712380607655   -2.06168712973484   -0.08083468925631
H         1.67021962993139   -1.55270519487101   -0.42959011784108
H         2.26542143750666   -1.88473489873149    1.27321333026895
H         3.80712798783110    0.16822906013827    1.05343992561925
H         2.06123657703964    0.38895589602043    1.16991754936839
H         0.90246739342544    0.16960145084093   -1.23245352833984
H         1.97868346206351    0.23263731082750   -2.68356550860389
H         0.99601210641911    2.80364657255529   -1.42739281244547
H         0.05372215104523    2.02501521578003   -2.72555817119139
H         3.36194946431952    3.70663869936846   -3.87445447136540
H         2.87111255597023    4.32508401125757   -1.38202694206147
H         4.58959503012190    3.73381886779105   -1.64688339415371
H         0.96569906441886    4.00948941229386    2.07562887728157
H         6.29447621824724    3.13111958742165    1.76738210678471
H         3.60991494301206    1.08287681023925   -4.19335696405353
H         5.91688693596856    2.80811979061828   -3.94884783792910
H         5.59927092559007    1.83228722930260   -5.22452453280335
H         5.43966011155478    1.81081473828164   -1.88988393617697
H         5.60714364620214    0.35173440696172   -2.94436411342559
H         3.83747519841616   -0.61797914253284   -1.94000625247536
