37
 energy: -49.849689122959 gnorm: 0.315104765832 xtb: 6.4.1 (79825abcba525fcdf90b791dcacef51065a7a4e7)
C         2.46296702516902   -1.23491072984751    0.42430104777226
C         2.87734399708584    0.21051465720788    0.64127674459342
C         3.07662363700906    0.95661907215707   -0.74345589129217
C         1.53838183997971    0.88660434161265   -1.55400400352449
C         1.10872774341825    2.14349063750346   -2.29285140680877
O         1.84103073250952    2.54768315078194   -3.38263240330388
C         3.20924145204933    2.80095151404394   -3.18177395783621
C         3.53061101999888    3.43703169101211   -1.79338563218988
C         3.38852089198466    2.46064119685460   -0.53771209226002
C         2.23695625379740    3.00618691604182    0.29094618285679
C         1.44595483227977    3.73455328861807    1.02839770296339
C         4.68038017980697    2.71277963117340    0.22251014067243
C         5.54166607308978    2.59834471289490    1.19468683954151
C         4.11855598430482    1.59832002555964   -3.57992735734256
N         5.26072603261099    2.17538919466640   -4.45267485700590
C         4.91379840790206    0.91254663665624   -2.49505613609562
N         4.18673256886641    0.25016027525885   -1.42271345291673
H         3.20293254555079   -1.84358486985768   -0.09131767450732
H         1.55305237609120   -1.33303934655460   -0.18134579991751
H         2.25166415786038   -1.82126289845445    1.32920880045791
H         3.79374519788001    0.33511697334679    1.22831712998143
H         2.06533641179569    0.74821164752763    1.14376778702705
H         0.83950984714163    0.67338232209380   -0.74914443488638
H         1.56976456273887    0.01961325185038   -2.28153865345957
H         1.09914986043703    2.94371533046484   -1.52919011987601
H         0.06273807932429    2.10239750630320   -2.65219629364193
H         3.44180891036591    3.65748966287673   -3.82026059724863
H         2.83670072717702    4.30441306051099   -1.59239102724743
H         4.65150962741410    3.69578696801764   -1.89462953198427
H         0.58529037398003    4.11688248436068    1.52828099995899
H         6.39420975592417    2.98314815068800    1.71102996697052
H         3.52026506609922    0.94447676592640   -4.21897848108878
H         5.99435585454951    1.53630763731514   -4.75947724014989
H         4.89254474121249    2.59925487452550   -5.30768739070980
H         5.59940360617123    1.64691906058752   -2.03161353569708
H         5.58585002175744    0.11850597957713   -2.84873068948868
H         3.91952833179380   -0.71421624396703   -1.71273563159210
