37
 energy: -49.854269171840 gnorm: 0.325762694920 xtb: 6.4.1 (79825abcba525fcdf90b791dcacef51065a7a4e7)
C         2.60544836916832   -1.36319504695507    0.33832410195615
C         2.72330619883251    0.12741760655849    0.60707068635073
C         2.96850540273337    0.92909552449198   -0.73868505380053
C         1.47139887325880    0.84732409966880   -1.62189714864783
C         1.10469324217443    2.08192024347637   -2.42909020533501
O         1.89475542221273    2.52238973892403   -3.46303906830591
C         3.22557975761496    2.85988200596275   -3.16055748206383
C         3.47834728269387    3.36842000042220   -1.70218764596099
C         3.33327828655118    2.38285424704066   -0.45404536751769
C         2.26131353574932    2.95642063893682    0.45826433923299
C         1.52692784350600    3.73660819742908    1.20124516682770
C         4.63382183084397    2.61696341100350    0.29708132790605
C         5.68984795942339    2.96231129458363    0.97941550382621
C         4.17554637173864    1.70191526313644   -3.54528753741868
N         5.32777571850394    2.28559048007505   -4.40023795524321
C         4.86702202208656    0.98411454316971   -2.41115140302679
N         4.08338810919936    0.24504243461571   -1.43289296824690
H         3.51687789048861   -1.76973228291354   -0.09517278419058
H         1.78863027120673   -1.65121756809044   -0.33564416162207
H         2.50986601783788   -1.93218277948977    1.27343520904061
H         3.58751689465771    0.24846120598777    1.26920483618054
H         1.82389344362706    0.49931007065211    1.11078122885244
H         0.66472259431012    0.65179842338540   -0.91995148968436
H         1.70076017235954    0.00611580378884   -2.34420393206332
H         1.02706992269990    2.87743422852764   -1.66439289519584
H         0.07000154387312    2.01710056136278   -2.81654764665455
H         3.38112062415169    3.65675431636039   -3.89282244199981
H         2.81295184214251    4.27029122677069   -1.56751040025451
H         4.56098360561250    3.77013429547059   -1.71412597599791
H         0.66784888007032    4.21272866558277    1.61608838958622
H         6.65778401931675    3.14992912917544    1.39101469571325
H         3.62773051934627    1.05355192899930   -4.23330799392022
H         5.86408754878085    1.45990802850356   -4.66741535841460
H         4.90003504865893    2.78549404155056   -5.18343675457587
H         5.43817022672566    1.67368715073132   -1.76121622467535
H         5.57494087456470    0.25752821880459   -2.83324480271839
H         3.79082059690445   -0.69542506009708   -1.77268434753492
