37
 energy: -49.855487938552 gnorm: 0.324650107716 xtb: 6.4.1 (79825abcba525fcdf90b791dcacef51065a7a4e7)
C         2.47991124700520   -1.33667731316316    0.42776975709783
C         2.75121566984416    0.14498960013883    0.62550277253201
C         2.96621510334967    0.97426496202200   -0.70864349504480
C         1.57146207916417    0.86401984646303   -1.74333579064441
C         1.11258825946548    2.15052800163317   -2.41011376933384
O         1.90325658007456    2.61509473910102   -3.43299363961950
C         3.26834971690120    2.80492029024724   -3.15554717652434
C         3.54775189645216    3.38017163910083   -1.71116587231219
C         3.29900311458866    2.43167776945045   -0.45071855484115
C         2.34397629719843    3.21309454504370    0.43681030447835
C         1.37551308543965    3.87837866609869    1.00206383285636
C         4.54505599252674    2.48222502400641    0.41830918518619
C         5.75663088190004    2.69278902334728    0.85165127133161
C         4.14207715396729    1.61045440545739   -3.51436956658338
N         5.17694842350152    2.16760284083203   -4.52326823332238
C         4.91491179041775    0.99702826249397   -2.37153265274091
N         4.15326818456155    0.33629987322948   -1.32242051890960
H         3.25633172891991   -1.95812426841755   -0.01367193081973
H         1.58581024124994   -1.55770939195443   -0.16897994732486
H         2.27244196995286   -1.74584039830138    1.42619745955846
H         3.73235329412609    0.23359882526379    1.10451287625906
H         2.01675476173197    0.59414426676643    1.30358748661068
H         0.76392283122043    0.54339481393742   -1.09006358960842
H         1.81456188382062   -0.00824153437309   -2.42306195625680
H         0.92596432468147    2.93190458706108   -1.64968494635178
H         0.16326265180628    1.98858973851105   -2.95552064501141
H         3.58389343185196    3.63456487655728   -3.79392984869927
H         2.92645321769099    4.31856992651360   -1.62365946945274
H         4.63955752303032    3.75156204943042   -1.77156408706834
H         0.78719195405589    4.35777409996737    1.75097006789898
H         6.63516850008911    2.66373472409690    1.45897500414972
H         3.51417413751575    0.80746963105752   -3.90781921232484
H         5.88163683257793    1.48010975072056   -4.79072505607716
H         4.73905153848713    2.49473133124515   -5.38784863995353
H         5.48683652854826    1.84701371506371   -1.95372502588816
H         5.59389408047056    0.22231016587973   -2.75367732039211
H         3.86709688944223   -0.62278825532570   -1.61188379936454
