37
 energy: -49.853760035839 gnorm: 0.321389182957 xtb: 6.4.1 (79825abcba525fcdf90b791dcacef51065a7a4e7)
C         2.56292169078289   -1.37619142812996    0.41253140775388
C         2.78277709662947    0.12154204810798    0.54098105645656
C         3.05539595735144    0.90632496388570   -0.80944975552295
C         1.57095096027787    0.79710718102573   -1.71087787685108
C         1.06359424686760    2.09916343113646   -2.30879089407191
O         1.83011059816584    2.56820504673945   -3.34788401896614
C         3.16855121549690    2.89983852270690   -3.07386667720132
C         3.42530496407604    3.45082848923809   -1.68342395087868
C         3.32716676566048    2.43355463813374   -0.45632704476471
C         2.27813680870986    2.95574925445831    0.51178696392493
C         1.29784654228448    3.56346963743889    1.11985147488400
C         4.68343021553244    2.52492885405337    0.22382895664265
C         5.81848509019514    2.53604634934323    0.86536076810362
C         4.12986066249554    1.82433554112863   -3.55080491308628
N         5.19140562366340    2.47561676563402   -4.47178510039819
C         4.92965893297770    1.10398558215584   -2.49200375931656
N         4.14811988892394    0.27655601728454   -1.58544085787464
H         3.45804970892970   -1.91501980588641    0.10871294658854
H         1.72496105979833   -1.59351437929062   -0.26198672692544
H         2.24974530464583   -1.70096057260527    1.41441032371955
H         3.67493654112836    0.26078484077559    1.16113932856828
H         1.94817650532301    0.65164732784214    1.01363512147094
H         0.87474926303268    0.40485738537815   -0.97390575258286
H         1.74810892685762   -0.00663665325113   -2.48842272817400
H         0.96218333877545    2.82045210769284   -1.47627162752381
H         0.07717233257634    2.01802787257888   -2.80406919848973
H         3.42942872528682    3.68694756867567   -3.78647644870197
H         2.61748591951778    4.21236331141297   -1.47908631189437
H         4.52655397527099    3.79614485789474   -1.64310609734122
H         0.39665498919372    3.80700988960570    1.63496717363451
H         6.73722832333662    2.53469369360989    1.41072637146038
H         3.59616752071174    1.15725285916610   -4.23199629268046
H         5.69938671671611    3.11293059196359   -3.85814681054870
H         5.74568023926282    1.68145661935056   -4.80095879809664
H         5.53227570259872    1.78462187944395   -1.86135040867600
H         5.60567296506958    0.43362298292298   -3.04050958476816
H         3.78340784013053   -0.50897802515404   -2.16462513686003
