37
 energy: -49.841831701122 gnorm: 0.325326002377 xtb: 6.4.1 (79825abcba525fcdf90b791dcacef51065a7a4e7)
C         2.80419024329510   -1.49875403826610    0.11618351321030
C         2.94284477594861   -0.05051054593994    0.55368435328754
C         2.95995271962013    0.89699227160635   -0.71746252061085
C         1.31010212250745    0.95617540634521   -1.26752478529063
C         1.00964086768370    1.89053437051831   -2.42810983155361
O         1.97276343242075    1.96457968082073   -3.40492818388977
C         3.09836897155004    2.76870337737063   -3.15415577111664
C         3.19405289398413    3.37827434224413   -1.72745331269973
C         3.29042171399820    2.38355491447494   -0.48186496665498
C         2.28507244848003    2.95458844502453    0.50484138509714
C         1.44854699852481    3.75472851846571    1.10487183867687
C         4.66468489098332    2.46751089899000    0.16215680516645
C         5.86798634855168    2.70314206768790    0.60553005321415
C         4.34248043522763    1.91599184145986   -3.57803258076705
N         5.38284325816409    2.98047026794668   -4.00672864975418
C         4.86722025893077    1.02547772075873   -2.47745367024990
N         3.90942936561123    0.28197320062863   -1.67300548073086
H         1.94919375234892   -1.53452397213150   -0.55582642658985
H         2.54480569189094   -2.15944403988307    0.95319628159764
H         3.68514119588490   -1.92911538522455   -0.37983094067284
H         3.81845240671945    0.12544974720172    1.18794184385443
H         1.97863387095095    0.13643727046146    1.03981135768171
H         0.67358512161883    1.22357095441311   -0.42786393363693
H         1.09028313523258   -0.09988949427418   -1.61157656999925
H         0.85360553259316    2.89997594532189   -2.00347994845624
H         0.09988245130054    1.51957814690054   -2.93766147235238
H         3.13382285473791    3.51427561810394   -3.95307721144143
H         2.30133892389614    4.06346275265876   -1.63891310136290
H         4.04922140440189    4.15413982850712   -1.70907210132956
H         0.57304478047069    4.09170463478378    1.61157219123612
H         6.73843006221062    3.00285166962820    1.14776290814950
H         4.21738441576502    1.27864637934864   -4.45666283156769
H         5.52162135494881    3.68414537423691   -3.28123044883727
H         6.28932422811692    2.52043687366792   -4.12042798113353
H         5.40074110732180    1.66166862512060   -1.74618557549732
H         5.63239929928782    0.31863963783627   -2.82691123174268
H         3.45755772669688   -0.32308682043561   -2.39081285894403
