37
 energy: -49.853633641659 gnorm: 0.333477264299 xtb: 6.4.1 (79825abcba525fcdf90b791dcacef51065a7a4e7)
C         2.50151934082053   -1.28774346593498    0.41786831713421
C         2.98357677748057    0.14652933986298    0.55396910294506
C         3.00554844971909    0.96259199470796   -0.80523199883125
C         1.32894118844403    0.98534128633006   -1.27057992516854
C         1.04851127208673    2.00463538975090   -2.36266961105528
O         1.99621155950192    2.05807255897247   -3.35578114072567
C         3.20853137383394    2.74349588217600   -3.16351807125990
C         3.51518801946288    3.38684484642163   -1.79663495868716
C         3.37371107066287    2.42261844382993   -0.53152795136815
C         2.24361673250369    2.99810692112491    0.30638351894223
C         1.35122890576439    3.69724687888735    0.95049747238843
C         4.63610343635245    2.65076898625517    0.28377862011276
C         5.72465269503217    2.74892052075680    0.99473787495246
C         4.31608210754926    1.76665121894173   -3.56253949621490
N         5.53538704723490    2.58439922303202   -4.05633409851557
C         4.83670351144853    0.81211402918473   -2.51494543014561
N         3.79515504379852    0.14161987938281   -1.75145761681491
H         2.99207469373698   -1.73861686479303   -0.44234355840799
H         1.41294253951657   -1.25126359826277    0.28351145979393
H         2.72737057918692   -1.79486502275934    1.36609548033366
H         4.06383556283925    0.13900633858065    0.73540138591128
H         2.56866573790529    0.65947899239380    1.42901373209206
H         0.64592086285987    1.17980837619376   -0.44756692211994
H         1.20926920359968   -0.06141841624091   -1.68523379673727
H         0.83676697380697    2.97364363297793   -1.87295823371853
H         0.12164489898407    1.73406337140375   -2.90361441414495
H         3.19416828840183    3.55965220061135   -3.89090584779565
H         2.86934570018103    4.30326772460201   -1.66503872309806
H         4.57323347844904    3.82321503919145   -1.95071015132298
H         0.80163679215234    4.38763851179068    1.54892053767485
H         6.54133285099199    2.78157993000900    1.68283777422105
H         3.92044782511555    1.24343167483417   -4.43636109873112
H         6.13060218542835    1.88265833963121   -4.49683872587918
H         5.21683528895440    3.20813390717808   -4.80181772126591
H         5.41738760976347    1.38909486778585   -1.77060983463383
H         5.46476669055801    0.03326996053208   -2.96901391216723
H         3.10740896139714   -0.27488638944464   -2.41407431865987
