37
 energy: -49.853124596160 gnorm: 0.317669251709 xtb: 6.4.1 (79825abcba525fcdf90b791dcacef51065a7a4e7)
C         2.49208843986337   -1.39707260698371    0.25016145280573
C         2.84172708571240    0.06099415448798    0.49477423655646
C         2.95361394230440    0.91917849193124   -0.83370971905449
C         1.48226975519001    0.77158186638054   -1.75100991553426
C         1.11140422852696    2.08794528421729   -2.41426507196100
O         1.88361266768627    2.59399602929540   -3.43155001043447
C         3.22295068066404    2.84824812454901   -3.08801091348260
C         3.43198892994696    3.36583079665013   -1.66850584192500
C         3.28920957231545    2.39271977026976   -0.41036712699019
C         2.26538419842022    2.98833514158915    0.54221870281546
C         1.49633368010079    3.59736494007738    1.40110145376818
C         4.60709137926093    2.40511526373908    0.34689501760802
C         5.65238841310942    2.94354235453070    0.91035458323544
C         4.18415463027262    1.69328713426262   -3.53409106636240
N         5.07848330257641    2.42607996844905   -4.56483852885730
C         4.98922909745245    1.07376004501343   -2.41709397234902
N         4.14199994150766    0.33299210738926   -1.49472480745736
H         3.26205081864996   -1.94871417263517   -0.28532464895942
H         1.54924326485302   -1.51031163736117   -0.29993117225301
H         2.37666022585500   -1.96445584426954    1.18400747744980
H         3.77780261069850    0.13976033594749    1.05823835462581
H         2.01773232337830    0.47813872432374    1.08468495800172
H         0.72592412206099    0.56290997610689   -0.99862574317392
H         1.62653492941548   -0.07731954812034   -2.48620991554534
H         1.05286196884801    2.85906840282656   -1.62333410395918
H         0.06611156969626    1.89043353376651   -2.71965684738456
H         3.47303463280409    3.71678387224535   -3.70324589595070
H         2.85566012385796    4.32086773992571   -1.49527100340891
H         4.53813255410004    3.68338772731475   -1.76453806284213
H         0.72250434250770    4.06669936401523    1.96476412821629
H         6.56766491878293    3.02738071957546    1.45510653586514
H         3.61671133367299    0.98721495967891   -4.14508988731615
H         5.58421376555544    3.18926844821279   -4.11478775609198
H         5.83848445103396    1.83472584813403   -4.90975093719430
H         5.66380005368098    1.77215219633360   -1.88668015573371
H         5.64059583650371    0.28632871391826   -2.82071867011176
H         3.85808979071835   -0.53413611494104   -1.99773247309726
