37
 energy: -49.852752598747 gnorm: 0.314901988349 xtb: 6.4.1 (79825abcba525fcdf90b791dcacef51065a7a4e7)
C         2.87403177091869   -1.36433888261644    0.37812384672022
C         2.92864417890028    0.14766546420355    0.51560699953803
C         2.96562799263211    0.91150393415303   -0.87329603336429
C         1.44285019199474    0.71430795600154   -1.69203875642255
C         1.05178087952351    1.98563223107403   -2.42760701904309
O         1.89260122432407    2.41236048758784   -3.42669961665580
C         3.16325560962182    2.92180708679109   -3.10671344882542
C         3.21328369689549    3.44591422682136   -1.65947153572179
C         3.16641394184469    2.38881982955363   -0.46339517591977
C         2.05370052778532    2.86658044235891    0.45530468084494
C         1.43393979255355    3.23282861067278    1.54240835899051
C         4.44983357705590    2.51920267773146    0.34049928990466
C         5.74146949061547    2.59293282688121    0.50260040066634
C         4.27317246373737    1.92261631744812   -3.51944466851472
N         5.29939375243775    2.69914962916426   -4.38148603972936
C         4.96189973886537    1.18963353645894   -2.39337530872337
N         4.12218769675465    0.31965328193432   -1.58385860158330
H         1.89569096932121   -1.58968395878631   -0.04135764199476
H         2.89760409965516   -1.81763967837303    1.37729586993321
H         3.72330816302490   -1.75796605453152   -0.19729171399812
H         3.85136990200810    0.42877224476557    1.03473080925841
H         2.08549231617639    0.51004198987810    1.11456426811908
H         0.66470396090492    0.39270694791375   -1.00447359468802
H         1.66068163111926   -0.15785614600737   -2.38040227595765
H         0.78406963390262    2.75474405621265   -1.67898993036971
H         0.10701639564211    1.74908313221405   -2.95332211703948
H         3.27799338088940    3.82426720348013   -3.71318801003342
H         2.24030370440449    4.01824145756922   -1.66296911319715
H         4.06706890011757    4.20542024887006   -1.49267906564004
H         0.65809905371452    3.52227694311344    2.21404296182029
H         6.72449891574191    2.74981070090088    0.89061724262860
H         3.78625245593090    1.16247711351599   -4.13503110952824
H         5.82862615247543    3.38317321488396   -3.84038488855855
H         5.89994633145411    2.08588332217685   -4.93781961522132
H         5.42382225019736    1.91003791498531   -1.69210395350928
H         5.65675488889541    0.49046519655059   -2.87874071682330
H         3.74097246871240   -0.43913709319967   -2.18755153324129
