37
 energy: -49.854265622932 gnorm: 0.326423909969 xtb: 6.4.1 (79825abcba525fcdf90b791dcacef51065a7a4e7)
C         2.53013895447558   -1.28089679917348    0.46414033476942
C         2.99823173816864    0.15927906548667    0.58589378344398
C         2.93567498145288    0.94425847939319   -0.79024669556457
C         1.25963256035913    0.95984367878687   -1.25791862712173
C         1.05085993316907    1.98774873466712   -2.35795793344852
O         2.01942184749787    2.03777281738228   -3.33091594149279
C         3.20081397748659    2.78978641206114   -3.20731278336523
C         3.55728369674520    3.33945163418242   -1.81777828866380
C         3.33665599419805    2.38334516712954   -0.55784660347902
C         2.27473985200013    3.06301180354177    0.29114291725058
C         1.38087329028483    3.75118093432918    0.94494816349476
C         4.63172371256636    2.39955625578659    0.23773416822849
C         5.61034829544127    2.78039034919331    1.01058318071361
C         4.39113163232196    1.78310599625089   -3.59675425841787
N         5.54649642321530    2.64046010926318   -4.17062320534677
C         4.85247054616165    0.94219122174951   -2.43070538780168
N         3.77062861511037    0.22152898384062   -1.77682219370684
H         3.14530971034611   -1.80738495167550   -0.26268221116952
H         1.49703876149852   -1.37781822928187    0.10679984470134
H         2.72941713276440   -1.76553769433872    1.42991837276764
H         4.05458652079540    0.20097150698376    0.87279032528239
H         2.36371514083238    0.62764974603811    1.34680719052775
H         0.55813322273338    1.25162890281849   -0.48045822317224
H         1.07995604345421   -0.11060544035048   -1.58012993150751
H         0.92056829342501    2.99103033606883   -1.91065493404923
H         0.13196520108203    1.69500720439408   -2.90095575892245
H         3.11481678463776    3.62425090956649   -3.90851453537457
H         2.92291444795591    4.25542686070485   -1.63659936162286
H         4.65189000983779    3.70441904326116   -1.86525579787206
H         0.82056181153425    4.08984997061900    1.78646857318882
H         6.43644931420139    2.72795466127711    1.68609942695479
H         3.97049493675601    1.18539921408045   -4.40894927359467
H         6.27869839542534    1.99189950162793   -4.46047672872145
H         5.21138874007506    3.04304179860440   -5.04919980121357
H         5.39806649857265    1.55990490006624   -1.69253788837635
H         5.50685598430369    0.21667681816820   -2.93334658699075
H         3.16715138388400   -0.21409507317082   -2.50591749044200
