37
 energy: -49.851520366364 gnorm: 0.327815205612 xtb: 6.4.1 (79825abcba525fcdf90b791dcacef51065a7a4e7)
C         3.40289862293349   -1.34329275393052    0.31412302697340
C         2.85861885880416    0.05959359251560    0.52319410289092
C         2.94144841978642    0.90019822095235   -0.81859267910962
C         1.37010867225834    0.75710387943094   -1.55241386874033
C         0.92812405783471    1.92994467985925   -2.41227161657253
O         1.83980393356539    2.26782026187689   -3.38280846354173
C         3.08504733831559    2.86729117841887   -3.12494602892739
C         3.25947075542779    3.40444877799725   -1.69312796482130
C         3.16553111120699    2.38051924423428   -0.47124922656742
C         2.17257629546034    2.94327567290955    0.53261416470096
C         1.34908640197349    3.66314603874962    1.24232293778524
C         4.48073186556484    2.43284905698711    0.28896160519656
C         5.63736444347473    2.16106840043853    0.82596495635698
C         4.21023510476650    1.97071011326108   -3.61874865052335
N         5.25477691050945    2.89221957840706   -4.29624563578452
C         4.84969180914869    1.16542155018894   -2.51319599535493
N         3.96662556592546    0.32475844693925   -1.71898014735516
H         2.73897998442958   -1.86902793115793   -0.36903904145209
H         3.39528677373118   -1.83054911955236    1.29743645212202
H         4.45597240645917   -1.32693586492548    0.00093958728941
H         3.55433657223830    0.62168735395535    1.15561862700508
H         1.85921233834913    0.07169007655934    0.97265144419574
H         0.74004222808771    0.54934646560659   -0.69128800673680
H         1.29857477106938   -0.13521166107009   -2.24568219279256
H         0.78670566397840    2.80596505607025   -1.75180284771369
H        -0.02845025420931    1.70558854226335   -2.92172394962805
H         3.13872219570607    3.73592320242569   -3.78676762750327
H         2.45023195440702    4.18961815406354   -1.63925434029841
H         4.26878401586794    3.96468268984136   -1.66083236828770
H         0.71355622284524    4.11852125720490    1.96726226533021
H         6.53180413378355    2.19190152172477    1.40952432554997
H         3.88063986047987    1.24732767132836   -4.36837134722204
H         5.65401563822397    3.54800200678559   -3.62443948829207
H         5.98329276590662    2.31262892623831   -4.72004433215022
H         5.36496424222854    1.84001849935324   -1.80358366125960
H         5.64033581362096    0.45593792454170   -2.79382861934103
H         3.48634578401891   -0.33882509378130   -2.36281339820367
