37
 energy: -49.858954510203 gnorm: 0.332961085920 xtb: 6.4.1 (79825abcba525fcdf90b791dcacef51065a7a4e7)
C         3.12976563446146   -1.37806659760691    0.44497618207516
C         2.80636550566585    0.10585522071790    0.48278717731008
C         3.00145475991728    0.94595351021616   -0.84764271295299
C         1.54059818565249    0.76141512854596   -1.77496239161880
C         1.01191131018988    2.02993881810241   -2.42426904180816
O         1.79577338948969    2.55697893781725   -3.42179138692450
C         3.11118802537136    2.97295510312821   -3.15135152727877
C         3.28080222981515    3.40805927051187   -1.70044994299819
C         3.27981876187901    2.37127922467605   -0.48581823231936
C         2.29584656593922    2.84974280570909    0.56929652073546
C         1.36647977449863    3.21906033889590    1.40590722151012
C         4.60858484666855    2.45609044637949    0.24739370741532
C         5.61793938318502    2.71625562018221    1.03069044584881
C         4.12312836377135    1.89987077591023   -3.56377946615229
N         5.06121405592221    2.67057587827505   -4.52568295546480
C         4.85432056491956    1.12587569010425   -2.49329789592915
N         4.15009833103809    0.30059232166002   -1.52361874098728
H         2.50972799054722   -1.86789999863289   -0.30302943706064
H         2.91305045033035   -1.83338686109255    1.41970690633487
H         4.18009291956209   -1.49803082275200    0.14541485755419
H         3.45816570500867    0.53690802477062    1.25043507344279
H         1.77267936043150    0.28705715977199    0.79843006130224
H         0.76602978868216    0.36876567951120   -1.12108562497571
H         1.79677658677951   -0.02435721575827   -2.54884839213217
H         0.73330621417712    2.74565178323548   -1.62817607714516
H         0.07373832142954    1.73218335806107   -2.93031735951429
H         3.24930261833479    3.85854355827475   -3.77750475063442
H         2.48929216767142    4.15878790810624   -1.41031359477846
H         4.25350926867648    4.02106744486123   -1.59237449249470
H         0.66824625635479    3.39105238066323    2.19311173464183
H         6.53960024709798    2.73381730959965    1.57082695351711
H         3.55177682151148    1.26749143518610   -4.24752148941099
H         5.69819087146633    3.28828115958820   -4.02222851185249
H         5.70199628902002    2.03697855277909   -5.00964428611692
H         5.53138178232091    1.85336373117838   -2.00699999662906
H         5.51469941107883    0.45711704640082   -3.06242115375527
H         3.77057587867760   -0.52748577849897   -2.02936809350785
