37
 energy: -49.832654454500 gnorm: 0.330556549864 xtb: 6.4.1 (79825abcba525fcdf90b791dcacef51065a7a4e7)
C         2.57708940464856   -1.29581780395797    0.37179470940275
C         2.92675302232027    0.16921262721448    0.57044633343738
C         2.95694119086293    0.92684244120909   -0.82201708991783
C         1.37755439568410    0.68565996452110   -1.51154337321276
C         1.01693245948973    1.86236954132927   -2.40348938062247
O         1.92511050931476    2.08663206489925   -3.40956135938650
C         3.10959771309476    2.80458501954932   -3.16868136632728
C         3.29594698221663    3.34113388278069   -1.69345761774452
C         3.31169232317371    2.32274007350075   -0.46346975416866
C         2.25833638372006    2.80416554580385    0.52094206877538
C         1.40667004377071    3.57855387896040    1.13333300457540
C         4.63030910458538    2.46540631268228    0.27903144788906
C         5.80348406748716    2.55783436392152    0.84041709017459
C         4.32752054026278    1.97632656597886   -3.63036719156141
N         5.50239316092111    2.92951825279336   -3.96255595833590
C         4.88089543282009    1.15095705794974   -2.49362508209153
N         4.04152821289555    0.32971021106114   -1.63437218398794
H         1.70258223642257   -1.49240473405893   -0.24504128055312
H         2.46695933849177   -1.77196215408864    1.35441362054902
H         3.37599124686206   -1.80779117642267   -0.18224041644034
H         3.96756244501133    0.17703539362926    0.91189598143343
H         2.23047248770811    0.79303698138378    1.14229265196408
H         0.79448262395219    0.58117920942607   -0.60006342381770
H         1.49001033015016   -0.23784397953636   -2.15687989018824
H         0.69338506506838    2.71799376778267   -1.78151339796995
H         0.19883786962493    1.55312965027307   -3.08172510842087
H         2.99852881610727    3.67445684465403   -3.82167226963685
H         2.39032693687238    4.00807634662628   -1.59701674837010
H         4.21861452305552    4.02680269079301   -1.80373541193530
H         0.62132512073789    3.76821096000308    1.82908139778103
H         6.80083122004862    2.93383083986182    0.91417258531233
H         4.09014620570190    1.41178508644150   -4.53524050475051
H         6.12796305250471    2.29359382450806   -4.45755907665715
H         5.11286831100725    3.68659225888721   -4.52945573015525
H         5.26688575139714    1.87588177146942   -1.75225336525353
H         5.75548110565205    0.54265461374359   -2.76252592582584
H         3.63270724627366   -0.47242032521964   -2.15876236251825
