37
 energy: -49.853361347608 gnorm: 0.323658105567 xtb: 6.4.1 (79825abcba525fcdf90b791dcacef51065a7a4e7)
C         2.44542232748376   -1.20859095967065    0.60351379799590
C         2.90113312647532    0.24035989251156    0.57334140670073
C         3.01486003324955    0.96758516883883   -0.83096562318116
C         1.39480948222643    0.84722938712512   -1.45468737945167
C         1.06945987299550    2.05989110005668   -2.31134395649402
O         1.90382133108705    2.29740424283525   -3.37656240376917
C         3.20717884583539    2.78088167726726   -3.16680465963221
C         3.52964372443385    3.35396201977684   -1.80565063167559
C         3.39268267269000    2.39899642358012   -0.53304448662491
C         2.33467137295862    3.12542093281833    0.28139726562597
C         1.36190961509419    3.52977615838783    1.04968555756967
C         4.69692298565969    2.44072418606664    0.24646045983103
C         5.56822150485249    2.61914464413368    1.19989704266132
C         4.26733936265888    1.69258111382274   -3.63685771056441
N         5.36898929142149    2.54005989957981   -4.32052179879028
C         4.94921158181369    0.89484409877779   -2.55135913772994
N         3.99826019957458    0.24023436996074   -1.66565217265018
H         3.02221076099248   -1.77489830711929   -0.12484527422218
H         1.36122098072225   -1.19187517142616    0.43436882972663
H         2.58299645470129   -1.60862131638622    1.61759706948415
H         3.90812932496291    0.38132164649926    0.98079907606000
H         2.17380451384628    0.83587316024408    1.13666072731855
H         0.71007010525578    0.82778629532731   -0.61062661791231
H         1.40630549240015   -0.10371284281783   -2.06913168866349
H         0.92004121754221    2.92397596484788   -1.63705820979047
H         0.12266055549988    1.86857156513825   -2.85160283760602
H         3.37858755073174    3.58989590445804   -3.88201473218725
H         2.91442578313105    4.28231995739225   -1.62147900630256
H         4.60616838551130    3.76525895630757   -1.88013411101769
H         0.59768205122323    4.08063109194100    1.54900243380431
H         6.54573702213107    2.69120456720932    1.62508568080122
H         3.67407706649501    1.07931352051396   -4.31934732713764
H         6.31636071869851    2.16979015639177   -4.39896509648328
H         5.07275660024393    2.75533758642814   -5.27559651886134
H         5.51700336503112    1.61496080238173   -1.93234313391813
H         5.61752124090969    0.12635149328182   -2.96369509472093
H         3.43009257146579   -0.39719571555535   -2.26264586761343
