37
 energy: -49.852253095014 gnorm: 0.321936297156 xtb: 6.4.1 (79825abcba525fcdf90b791dcacef51065a7a4e7)
C         2.82307565903247   -1.39353204117861    0.46444414020553
C         3.09857182058413    0.09822715706289    0.54689192364517
C         2.97798795870471    0.91582267815690   -0.80620295188452
C         1.36113748861281    0.80421083785145   -1.43977653545119
C         1.03230946105041    1.94011981737723   -2.39468187513790
O         1.88517310565394    2.27252901325484   -3.41907906684309
C         3.12945612938506    2.84699291792447   -3.10564561111113
C         3.31300757926740    3.36078060532360   -1.71063475062816
C         3.30728165828152    2.35731535977055   -0.46835107374842
C         2.20323150787962    2.79237609040593    0.48148641772432
C         1.08860042971817    3.29713630391262    0.93187540785767
C         4.64086321629640    2.54834969441229    0.23555099219378
C         5.72211564810887    2.60363332381799    0.96209978026417
C         4.32192837267284    1.94397147982501   -3.60406971937687
N         5.29290721655375    2.87493430031609   -4.37202658989836
C         4.89360677513567    1.15114535812259   -2.45330833448057
N         3.95297214096655    0.30289430220656   -1.73708498412238
H         1.76269777943827   -1.63725097656136    0.47422575004600
H         3.20711578178619   -1.84461306185349    1.38825207213275
H         3.26372506703924   -1.81921526434846   -0.44766204934894
H         4.14883840915892    0.19894201122710    0.84139136890236
H         2.54639437119659    0.64333703006595    1.32079560661858
H         0.62365399633262    0.86718380592099   -0.64363765229205
H         1.29787014751185   -0.19642342546456   -1.96579308148178
H         0.75559037007749    2.84216997325846   -1.81730685200205
H         0.13048423114085    1.53153139252078   -2.88933177603013
H         3.15918193841345    3.74202466853213   -3.73289751703036
H         2.58124968970796    4.20141912588312   -1.53141970489447
H         4.30754060539894    3.94694882692535   -1.74111725481992
H         0.48568504934650    3.82087837791749    1.63826733681936
H         6.68126319362445    2.63940182521344    1.43143038236375
H         3.81571112554924    1.38561577131721   -4.39516539707849
H         5.92159094036352    3.33025203273848   -3.71005363512228
H         5.94420054137981    2.39135115630401   -4.99510793174721
H         5.39984391952790    1.80371185538525   -1.71709008615489
H         5.60943660593298    0.43684274250339   -2.88295825388494
H         3.39683665700947   -0.23031064723826   -2.43846850599563
