37
 energy: -49.851797601730 gnorm: 0.327471906338 xtb: 6.4.1 (79825abcba525fcdf90b791dcacef51065a7a4e7)
C         2.60312526077841   -1.27040952950608    0.37630281039615
C         2.93093843532821    0.19758051689193    0.58980930640767
C         2.90735054107525    0.94041256933464   -0.81073087479361
C         1.23093724280111    0.95962928197660   -1.27693608996424
C         1.00782013972290    2.03148581605239   -2.33126223395681
O         1.92802547035496    2.04584201580983   -3.35120239159391
C         3.19465359481742    2.64131856984122   -3.21872439342034
C         3.46690580434475    3.35009779130161   -1.93059658808374
C         3.35122983560052    2.40772498527969   -0.64654184362479
C         2.41606636711392    3.08053045561411    0.34502153817820
C         1.57071413404313    3.89438798005086    0.91339734704737
C         4.66419575196817    2.42079064122109    0.11920076539048
C         5.64387616991148    2.56105737636406    0.96807520431431
C         4.38125740169692    1.75137626870405   -3.56018840201573
N         5.54384202034694    2.71547920148081   -3.90392083120480
C         4.78447488936027    0.87409148640626   -2.39940061414920
N         3.70174555176810    0.13582901728158   -1.76697278058996
H         3.45932916289323   -1.80827721674917   -0.02557910747731
H         1.71357212618067   -1.42969482694780   -0.24635713928391
H         2.57176715151755   -1.77282678756390    1.35298565353431
H         3.95392975996575    0.27932757497333    0.97287520203419
H         2.18163304208226    0.66968062101424    1.23528164440551
H         0.64715601305445    1.20007632667066   -0.39202405373664
H         0.95425055821829   -0.08758902199481   -1.60669872348212
H         0.91648474670258    2.98606669557332   -1.77984311313996
H         0.02877025594655    1.78917308787825   -2.78695690971683
H         3.21580527103586    3.47223968098142   -3.92902934585281
H         2.78744264936414    4.21219162977099   -1.66718664225209
H         4.50837401678981    3.83267311807134   -2.05741660712490
H         0.88127466357946    4.29489401941948    1.62126061258684
H         6.53516029066049    2.90146789036741    1.44895759874918
H         4.12460675498419    1.12622443912745   -4.41877154027836
H         6.44331539376902    2.26689300899616   -4.07851674557085
H         5.33566883544205    3.11165875811090   -4.82368802712576
H         5.27695771580259    1.45677594901592   -1.59810424477368
H         5.49673753823333    0.14032420335053   -2.80128009847250
H         3.11453238438078   -0.25951234343141   -2.53144576502966
