37
 energy: -49.856730015462 gnorm: 0.323992686434 xtb: 6.4.1 (79825abcba525fcdf90b791dcacef51065a7a4e7)
C         2.61840341741688   -1.31476444272503    0.43949167533153
C         2.93820013875644    0.16665294088633    0.54519820312639
C         2.83386400057227    0.97620229510312   -0.81407088695839
C         1.15092753513366    1.03678236249171   -1.25240071700078
C         1.01253578179574    1.92433666381271   -2.47851505666975
O         2.06544336658760    1.78858291444465   -3.35042010512892
C         3.15462643802001    2.66269991371545   -3.18889840208112
C         3.39678820071465    3.34286151745519   -1.86006946392966
C         3.29098998112757    2.41278993217825   -0.56623114659020
C         2.45613035571077    3.12866220650968    0.48302199169809
C         1.50812611129100    3.82901375918795    1.04054435340421
C         4.64353765076786    2.48068755948930    0.12399833985882
C         5.73594253282193    2.63212751696496    0.81952241780212
C         4.38571902454615    1.80783526686886   -3.54335460357811
N         5.61256009302271    2.72682968532095   -3.76597467212979
C         4.78499701846183    0.87877001621167   -2.42216948790600
N         3.62479215733346    0.23604424160705   -1.82373192622142
H         3.18111722759040   -1.65379327404253   -0.42786549806238
H         1.58187833625757   -1.51686129355591    0.14090397101850
H         2.90553460414590   -1.80035620487987    1.38239789038865
H         3.94587610607116    0.30487638022336    0.95191276868601
H         2.28921309974859    0.69008689506142    1.25639742875685
H         0.55233939091828    1.34527540938209   -0.39904915350427
H         0.96188064813415   -0.03939444045855   -1.54916637425714
H         0.89950788363008    2.99758975380377   -2.23565222422443
H         0.09862824232925    1.60967040338367   -3.01765318784379
H         3.05809398571903    3.43296381706884   -3.95882399370376
H         2.70444227593177    4.22551393428832   -1.73420208673143
H         4.45820294086878    3.77711880739739   -1.99585481710950
H         1.04580614135055    4.65724129977658    1.52747521347599
H         6.72304435803165    2.48165743211325    1.19965840135755
H         4.17328651531335    1.25550637209346   -4.46186132145607
H         6.49962473316697    2.24382705080580   -3.90946834498523
H         5.41966548879823    3.21958783141126   -4.64133008098799
H         5.38755681691625    1.40257317148619   -1.65621365847234
H         5.45156076304018    0.10864120519041   -2.83427871540103
H         3.01761875731924   -0.09571082587466   -2.60271336171990
