37
 energy: -49.800195040972 gnorm: 0.337199124439 xtb: 6.4.1 (79825abcba525fcdf90b791dcacef51065a7a4e7)
C         2.61692449893049   -1.35748300403896    0.17403447685009
C         2.65536880297544    0.11346901288797    0.55200732624047
C         2.95871400900764    1.01972789665719   -0.71311921445163
C         1.73445673031972    0.77706543888457   -1.92571443655780
C         1.08834502366298    1.92351620425530   -2.68627448583600
O         1.84305860208157    2.64743490422673   -3.57712295936486
C         3.14733937103074    2.98205139545545   -3.17292866179419
C         3.11541528867243    3.51289219326420   -1.59438375629016
C         3.11113429615199    2.46102905217180   -0.39279744818574
C         2.29670544253257    3.01040861596597    0.76706617433497
C         2.11917791535456    3.03952704940514    2.05844979452254
C         4.48410386887976    2.65308238702727    0.23048581064870
C         5.72013575516332    2.30940649700758    0.46318391598336
C         4.08514098539863    1.81892722699256   -3.50350491648206
N         5.11212404934431    2.34488926379471   -4.53690666066690
C         4.83617011420679    1.19278328623121   -2.35305273092972
N         4.12555736551009    0.38818934128740   -1.37073029962632
H         1.72323680055481   -1.39271868638492   -0.44562397016960
H         2.54273072276340   -2.02520581325038    1.04180376134358
H         3.43505225381364   -1.55204738465829   -0.53316244490772
H         3.43521325851566    0.36294856538603    1.27969949254754
H         1.69035223435199    0.33797883780902    1.02031275977941
H         0.83831289992215    0.35515542954829   -1.47782740335852
H         2.23999426827772    0.07448789985056   -2.65563339717744
H         0.63339109531805    2.37576862373521   -1.78510051468171
H         0.19299747440255    1.54810246771342   -3.21762094584493
H         3.37080044483428    3.82870391012299   -3.82764621881588
H         2.30671425172747    4.27844086266197   -1.40945504101616
H         4.14305038727420    4.03278707049769   -1.67978707625573
H         1.76218979393184    3.28252143337432    3.03329105854429
H         6.78538661912738    2.37941246340248    0.50624575256951
H         3.42082521286632    1.15799599422836   -4.06538019533346
H         4.61030560871899    3.08826892069486   -5.02304511124499
H         6.07080548804153    2.48285379778502   -4.20802720410081
H         5.37333649969009    2.05655121747894   -1.91774407848039
H         5.70654389608959    0.64017076673169   -2.73293232826312
H         4.78680411248179    0.22935278793208   -0.58139087481118
