37
 energy: -49.854582304527 gnorm: 0.314439439125 xtb: 6.4.1 (79825abcba525fcdf90b791dcacef51065a7a4e7)
C         2.34717058096377   -1.36361836578933    0.35577332904567
C         2.93898746861085    0.02529955561351    0.52518718911561
C         2.97120951162962    0.84812971792889   -0.82972273733192
C         1.34072553401574    0.90296986124322   -1.43519171824699
C         1.08685315980595    1.96157529063547   -2.49592950397367
O         1.99473912526614    2.07518536340801   -3.52067225233314
C         3.18454709996382    2.75968876853596   -3.21686042986325
C         3.31413212434108    3.31417628937802   -1.79506690128476
C         3.30796947887458    2.33406996439070   -0.53427444907187
C         2.34964930031598    3.00997362632203    0.43276874018630
C         1.75777527247400    3.58366680511760    1.44301464755407
C         4.59352740038578    2.46099869914345    0.26675111616859
C         5.58922632002876    3.03724474054024    0.88039627961342
C         4.36158391805060    1.81260030239785   -3.55648103554866
N         5.49611466242747    2.77315258312988   -3.99171516705069
C         4.90405944141687    0.96257517812854   -2.43272892136432
N         3.94758641833836    0.14970090822668   -1.69673025760703
H         2.85023691039374   -1.86512627180118   -0.46842927656151
H         1.26449115220765   -1.32249556706574    0.18114180854139
H         2.45699237275408   -1.89796545865866    1.30957004035000
H         3.96546023771741    0.07100662968047    0.90492108203443
H         2.39673182513319    0.58822131363141    1.29333400502786
H         0.72700720130480    1.11126154314455   -0.56246667563734
H         1.12128197469746   -0.12694800290015   -1.85121913163352
H         0.95296456290089    2.93835492617733   -1.99432682958848
H         0.10231013909045    1.74096672299046   -2.95081264315568
H         3.21594377033889    3.61336837123882   -3.89925019879955
H         2.59194814398917    4.17374633340393   -1.67737917841141
H         4.30349529946966    3.90850055555936   -1.83453183236153
H         1.08782194787422    4.35012718230066    1.76003722383694
H         6.49325378588024    3.25704368875945    1.40569370770502
H         4.03012416685283    1.14448860033839   -4.35498623686794
H         6.35286008323026    2.28347177167264   -4.25049237175149
H         5.16754556453917    3.20011317963648   -4.86120525187439
H         5.43239318493477    1.66760580390117   -1.76345195276759
H         5.58885993703293    0.18972107213527   -2.80820786660805
H         3.40314381674050   -0.43890973663359   -2.36205183499139
