37
 energy: -49.852262837985 gnorm: 0.327326979606 xtb: 6.4.1 (79825abcba525fcdf90b791dcacef51065a7a4e7)
C         2.54153485029843   -1.27313503643705    0.44086201985423
C         2.80200991518005    0.21521814236618    0.59897221319712
C         3.01328068210301    0.94068501023907   -0.79491843267094
C         1.44021015910201    0.86484298733282   -1.53503683430281
C         1.05872752130620    2.08664997833695   -2.35474407649190
O         1.86828017095671    2.45424376274943   -3.40200774586551
C         3.20462208523620    2.78353910530434   -3.11522487055926
C         3.53531075828630    3.39130086654109   -1.78513945776557
C         3.29615119607790    2.41387694744029   -0.54510348895163
C         2.18115962921859    2.97084189687768    0.32494232156714
C         1.62134844015374    3.77699078180769    1.18329593227319
C         4.54793754078011    2.52235718594237    0.31027649869012
C         5.69784339449946    2.73104797001515    0.88837767591380
C         4.25841381151892    1.63966604943930   -3.53304791100393
N         5.34703696660640    2.36714110263558   -4.36065235550725
C         4.94088710141813    0.96926492022680   -2.36495812226237
N         4.00773274981003    0.17475624289263   -1.58056142790074
H         3.44675800442301   -1.83930227101028    0.23128733005243
H         1.79251362005190   -1.53688940710533   -0.31662251910596
H         2.18632004684433   -1.67925868056282    1.39804634764347
H         3.69668432955449    0.49997148533631    1.16324744576083
H         1.96755583584879    0.71583874083613    1.10299307151991
H         0.73141447837102    0.74639521259600   -0.71940001257804
H         1.50792555975383   -0.06463042292551   -2.17804452955244
H         0.83531425039865    2.98158551405830   -1.74416504508451
H         0.09152040357224    1.85964260205100   -2.84248356961042
H         3.38901297949514    3.55668835025046   -3.86599158195947
H         2.92282750909041    4.33780522522023   -1.72809098959188
H         4.61376073191641    3.78864403820467   -1.67252344924620
H         0.82926714787069    4.34942452832203    1.60959291107574
H         6.54359246364883    2.66871883909375    1.53825317485864
H         3.81333667326687    0.93586230081337   -4.24044878335718
H         5.96911080805558    1.61092404095987   -4.64687874547120
H         4.95054241652898    2.82130296938702   -5.18696650959320
H         5.38249230151986    1.70388347029486   -1.66534621413017
H         5.77092868596808    0.36140702509083   -2.75067741630600
H         3.60490523791262   -0.56607240599332   -2.19247314375498
