37
 energy: -49.856600051829 gnorm: 0.319290871676 xtb: 6.4.1 (79825abcba525fcdf90b791dcacef51065a7a4e7)
C         2.77756621428488   -1.44280935712878    0.23530989863242
C         2.89062591479433    0.04800709791984    0.50498577635542
C         3.05617488760444    0.90437289042301   -0.81906098000927
C         1.61017149600446    0.65292236173471   -1.75390051402241
C         0.97851450719282    1.87141490465150   -2.40700591172645
O         1.73672658976637    2.56938050380771   -3.31542230103361
C         3.07779413326192    2.89614799460331   -3.04849459019547
C         3.37157075478829    3.46390980754125   -1.66016337023591
C         3.31511303455505    2.40386910838111   -0.46711254118650
C         2.27124510597037    3.01615760302795    0.45258220291253
C         1.31859737026866    3.39075769256103    1.26015424266188
C         4.60887665710947    2.48101958460930    0.32701306163895
C         5.67095268073577    2.63410766791043    1.06768495680290
C         4.13081635627381    1.85979160527661   -3.53558781157062
N         4.98914840817862    2.66170151992011   -4.54526895967962
C         4.96132615761143    1.25675732399323   -2.42822863518700
N         4.27081309190199    0.38598720189963   -1.48894680475594
H         1.81847370579866   -1.75573865430491   -0.17225931268936
H         2.96870548900736   -2.00632400555135    1.15742649476161
H         3.61947605998506   -1.70333854349876   -0.42091274883481
H         3.78649141038413    0.17155679405305    1.12312313857111
H         1.98549010856604    0.37440812260377    1.02954574731832
H         0.86495309623968    0.24705010111274   -1.07448763362101
H         1.83664633832278   -0.14615506636049   -2.52341302317590
H         0.71203085120108    2.59789519539678   -1.61653598528952
H         0.03452524472407    1.66765965013255   -2.94763502604203
H         3.24142345798596    3.76490332175563   -3.69184522354404
H         2.62091014471126    4.26240546982327   -1.38965626793450
H         4.38304624958171    4.01184995460646   -1.76163861331038
H         0.60588670916718    3.94656521215174    1.82577231011039
H         6.49218190125120    2.89726365858974    1.69843537194648
H         3.64805137626444    1.09593310081120   -4.14984144730684
H         5.75027215958832    3.13647471150283   -4.05942257810438
H         5.47277438551362    1.99597981974807   -5.15287618697581
H         5.43357082255143    2.11522605798786   -1.91427066214169
H         5.82363095455827    0.69316744819348   -2.81037587856984
H         4.10596949734051   -0.55472530990653   -1.90538359326984
