37
 energy: -49.853085645553 gnorm: 0.334861654025 xtb: 6.4.1 (79825abcba525fcdf90b791dcacef51065a7a4e7)
C         2.67857547623316   -1.33416747507112    0.24356378520338
C         2.96262324096905    0.12234990921745    0.56901002356348
C         3.04877268712392    0.93590830475217   -0.78913932602937
C         1.49117882392387    0.69501724539708   -1.52666965477643
C         1.03045116800871    1.90642084790862   -2.32070531380980
O         1.81228835418883    2.24199432871340   -3.39930761738086
C         3.06181613985821    2.84692338238382   -3.17742768390540
C         3.26424273999144    3.35648866979414   -1.77902598667558
C         3.22289301326909    2.36626996720538   -0.52682746712329
C         2.20471115861803    2.93111145089685    0.45023736738669
C         1.58853806076886    3.48561403978620    1.45666327858182
C         4.45530536737025    2.57324486172991    0.33846626082145
C         5.64546347816016    2.84841256506065    0.79436390062114
C         4.21484355066583    1.87450011585384   -3.60302178904101
N         5.24568528672373    2.63849624413184   -4.47073411147481
C         4.96103583537306    1.17598193772536   -2.49175645215876
N         4.15095884441519    0.36425292539825   -1.59611671684627
H         3.41892244722125   -1.72773854003516   -0.44989423531660
H         1.64222394934345   -1.42958037999868   -0.10465150515827
H         2.78157878511170   -1.97437262966586    1.13060577216995
H         3.89703376929088    0.20898624079433    1.13408030476903
H         2.13428221872686    0.47345525061917    1.19474783591098
H         0.81384044846849    0.44405335375037   -0.71431845766812
H         1.65283696108819   -0.22228883654453   -2.17039420040174
H         0.81716812049912    2.78477334976807   -1.68302429609825
H         0.05324391883627    1.62088333057694   -2.75480909048342
H         3.01779212360729    3.69006984036774   -3.87210483781943
H         2.56545672716060    4.21242450441534   -1.54808720008371
H         4.31781372369137    3.82589143600381   -1.83618835205466
H         0.97209405728020    4.14230262971012    2.02724120859178
H         6.45823406102983    3.02229188845265    1.46569436898273
H         3.84938255141288    1.10068721932907   -4.28236060652771
H         5.78278427264867    3.13692217320116   -3.76090178800688
H         5.92049291849514    2.04896165149343   -4.96403892076439
H         5.58754198026260    1.86577334757566   -1.89525477565477
H         5.68628002066217    0.45324135021294   -2.89038728558199
H         3.68189708780381   -0.44170209729042   -2.06082157928193
