37
 energy: -49.778558752264 gnorm: 0.353423089197 xtb: 6.4.1 (79825abcba525fcdf90b791dcacef51065a7a4e7)
C         2.50804455618315   -1.30401382920405    0.43755596512774
C         2.68600913115628    0.20088276367808    0.54551953416622
C         2.96307901487360    0.98345363395569   -0.80528902312144
C         1.69077498232644    0.73417107418885   -1.96596933456778
C         1.08681167422768    1.98337155475152   -2.58644316236532
O         1.81338579753818    2.67064349812527   -3.52825481832332
C         3.13046213863390    3.01162086920479   -3.17394718898479
C         3.22499368373588    3.44665757080598   -1.56774751549015
C         3.36405943824501    2.36695181358283   -0.39935535237374
C         2.40507250628904    3.00168623466291    0.59455215658053
C         1.86226230853263    2.87609671772212    1.77337358802049
C         4.82632552491974    2.52705693885976   -0.01652861198877
C         5.95860238661998    2.41807589004291    0.62073781258501
C         4.00505639393605    1.93343148901179   -3.50440780391075
N         5.23351844826016    2.54534650044996   -4.22252370211261
C         4.76893134335041    1.12076298471844   -2.48671129520044
N         3.99631476000471    0.27210917207447   -1.59220049154699
H         1.51236315094509   -1.73102466817261    0.33667916152973
H         2.85811024936347   -1.78820778922618    1.35809505592803
H         3.12305022991440   -1.66235318306664   -0.39950839142460
H         3.53480805975726    0.39173560745812    1.21113870678452
H         1.81416399137547    0.61964509525994    1.06078236186936
H         0.79594723758196    0.30112611179377   -1.52615120725963
H         2.12891822846038    0.11679314610140   -2.80789574572157
H         0.68836326072938    2.54942706766526   -1.72362807533414
H         0.27849304140924    1.59407851209281   -3.23450464512143
H         3.27511681392000    4.02259247979133   -3.56435958543230
H         2.19787693140120    3.87748271968869   -1.38422193135179
H         3.81970264976351    4.39545467459150   -1.28539380831312
H         1.33646757320227    3.16903249473894    2.65344790710605
H         6.93876730434558    2.68355735315775    0.95286876968172
H         3.36702170169023    1.21194996885354   -4.02037826561282
H         5.69580356391510    2.24395590573223   -5.08055740550387
H         4.86020460528546    3.46726197674286   -4.46121731307320
H         5.34323513612368    1.93951104814607   -2.01346384290092
H         5.44125550874056    0.42174789387968   -3.00304233821856
H         4.66911136279264   -0.20151743990349   -0.95301694742894
