37
 energy: -49.850987642087 gnorm: 0.325352618866 xtb: 6.4.1 (79825abcba525fcdf90b791dcacef51065a7a4e7)
C         2.61495310707096   -1.26437425534598    0.45460371994927
C         2.72682792270104    0.24109603453770    0.62514553027327
C         3.01207697557852    0.95374568884359   -0.76216557160262
C         1.52509562883614    0.89588981573406   -1.66417294548188
C         1.15822179015863    2.16868059199069   -2.40960470926018
O         1.91276725054420    2.67475968872541   -3.44004489262226
C         3.28098395659597    2.87610176647123   -3.18719322694231
C         3.52439949221416    3.39861218771089   -1.79712444468457
C         3.32068073184176    2.43396151023249   -0.54086340641167
C         2.23779998898303    3.08675032537686    0.30271939680953
C         1.60801977493880    3.55571546569325    1.34362484884826
C         4.48303130933230    2.66857318923145    0.41008900564341
C         5.65664867661711    2.67245127579809    0.97810624402368
C         4.19211131169451    1.61533712280596   -3.58143511113322
N         5.31205020014666    2.05922031087471   -4.55506442701771
C         4.87735848503174    0.97687418307680   -2.39718741502610
N         4.07698656282933    0.20006319803635   -1.46269892625515
H         3.55503007338733   -1.69668711195016    0.11806733531437
H         1.74838198933066   -1.47189221934781   -0.18599973819606
H         2.44147866542915   -1.68485078569216    1.45481465455854
H         3.50827837065664    0.54157561333225    1.33153107092470
H         1.79664032545573    0.69904803748637    0.98011400278185
H         0.70405627991953    0.78792317874512   -0.95995550052861
H         1.52186010697954   -0.01115000545904   -2.34184055254861
H         0.81143276285708    2.95436666977554   -1.71242136640049
H         0.18880141397471    1.89543354755723   -2.86837693735618
H         3.55489857295074    3.59464607044952   -3.96441602506664
H         2.91930903232594    4.34443235759499   -1.68071780582871
H         4.58269416831745    3.83558876126335   -1.64651845714033
H         0.89498137836746    4.07250462226347    1.94471344105430
H         6.42862184537553    2.80870521833795    1.70405864230678
H         3.52362487554738    0.86801811601131   -4.01558895075407
H         5.69312964890723    1.15046244948195   -4.81907817282190
H         4.94195666505884    2.48087410959471   -5.41034500085458
H         5.30036155817607    1.78533544454862   -1.77141175433829
H         5.70655778968902    0.32521039508419   -2.70541208463993
H         3.68922655211412   -0.65947744636374   -1.90582993831408
