37
 energy: -49.853864037536 gnorm: 0.334720022007 xtb: 6.4.1 (79825abcba525fcdf90b791dcacef51065a7a4e7)
C         2.58398698964637   -1.29241997799811    0.46332844638916
C         3.03781816315086    0.14921896976101    0.61745724907167
C         2.98457008876588    0.93915025324082   -0.75623917153351
C         1.33397892016929    0.86034088742254   -1.30159777771722
C         1.08924948658282    1.96116086631550   -2.32069746256069
O         1.98536457062454    2.06928703929059   -3.35633657105144
C         3.19074806170018    2.75646661092509   -3.12978761860069
C         3.50158662709334    3.36035043763080   -1.82448934289226
C         3.32812821850026    2.43625371432429   -0.53367509614909
C         2.23566811028563    3.11133335467585    0.27946338930369
C         1.38586513239855    3.91752961059397    0.85210461939397
C         4.56291260173411    2.53845227702016    0.34682187654404
C         5.66663490662232    2.74893838841826    1.00828153980636
C         4.32077883383941    1.78841341280725   -3.63932541258827
N         5.55959717053593    2.60189502391616   -4.08968775608304
C         4.80754256461510    0.81778312723113   -2.59024050697718
N         3.71524611204754    0.22866719938827   -1.83054968847925
H         3.11444291180597   -1.84357740677747   -0.31045307977446
H         1.50757790628268   -1.29543394813713    0.24951450993119
H         2.66070875693381   -1.77319874113466    1.44835705492204
H         4.08776413908994    0.10912711355224    0.92719811310285
H         2.48021854981861    0.71918820307851    1.36924802053317
H         0.64249441800613    0.98325670993773   -0.47188366959748
H         1.16493523839875   -0.18371442044545   -1.70574854146092
H         1.01705331196622    2.89266356843493   -1.72848104545356
H         0.12215057366780    1.76083369901502   -2.82019770215625
H         3.18408213941380    3.59589616151222   -3.83030457548198
H         2.98101561620681    4.34808368564334   -1.65820761565345
H         4.62100029112316    3.63633812478209   -1.75844273377114
H         0.73144144199313    4.54546808528324    1.41266251414130
H         6.41876288600221    2.78891203125921    1.76605471971591
H         3.98398922485322    1.26445328565391   -4.53703801371384
H         6.26968587882001    1.97029037799220   -4.46065305434146
H         5.19986496624250    3.15900311934407   -4.86846199930168
H         5.48831513935957    1.32081387632820   -1.87774829241542
H         5.41906544320314   -0.01393464590904   -2.96643851518278
H         3.09297122281734   -0.38320486816598   -2.39968901636815
