37
 energy: -49.850183784003 gnorm: 0.322728336728 xtb: 6.4.1 (79825abcba525fcdf90b791dcacef51065a7a4e7)
C         2.61632209652995   -1.33245949271388    0.50019062966632
C         2.82632525800371    0.17206402866589    0.51887012043389
C         3.08850700071580    0.93007442522624   -0.84881025837529
C         1.68158411912677    0.59801155664666   -1.81751061862940
C         1.08390549406316    1.87372772355863   -2.38811539595724
O         1.81320952971426    2.48836760350879   -3.37684959570494
C         3.10899575985520    2.94875770762010   -3.08449954882502
C         3.34574556015311    3.45618658831567   -1.64221737392012
C         3.29697800008916    2.40552051126054   -0.44056578914743
C         2.13627527550841    2.90673645489724    0.40320407561228
C         1.25758477840428    3.32719756265040    1.26989372671490
C         4.59799051352022    2.47800939592814    0.34207315950071
C         5.72034655298098    2.40922305271873    1.00208953533359
C         4.23377744632110    1.99887755487888   -3.54291936363321
N         5.10236708750836    2.71257566629550   -4.60848798384329
C         4.98461694382022    1.26502901606340   -2.45786287148111
N         4.23735349284596    0.36478432515312   -1.59272930502310
H         1.71245212374732   -1.55830876516453   -0.06186543989629
H         2.48835581743435   -1.61439084262417    1.55305403179854
H         3.45924660982999   -1.90915451110634    0.09495374963754
H         3.66275429515018    0.45867764570642    1.16553263870699
H         1.87993212318760    0.62710718210558    0.83231450573355
H         0.94491268153584    0.06720605238455   -1.21981058761352
H         2.08797182529049   -0.10167338601945   -2.60950500331815
H         0.85242567550359    2.48928093823443   -1.49865421642403
H         0.14159403104490    1.60494750348018   -2.90262299614840
H         3.13924763900015    3.87958786824117   -3.65725643240296
H         2.55938820142189    4.21333327813265   -1.35475996935272
H         4.34760278110796    4.02712573829043   -1.70489830060410
H         0.56355412431017    3.93153324070185    1.80831930622405
H         6.70964973423644    2.33869774914158    1.39935515409717
H         3.61861766903373    1.23987695274552   -4.03214927294526
H         5.74410677982995    3.37127387653961   -4.16684051128301
H         5.66225595113587    2.02329795469897   -5.11611649701096
H         5.56857816654604    1.92353106633135   -1.78741471611134
H         5.70098758382023    0.56184856452937   -2.90461782144919
H         3.95699882733377   -0.54319150809095   -2.01994609678600
