37
 energy: -49.854751615799 gnorm: 0.320181541325 xtb: 6.4.1 (79825abcba525fcdf90b791dcacef51065a7a4e7)
C         2.55989393983355   -1.32800080853257    0.44155875556797
C         2.81647997425235    0.16291076210738    0.58079802091039
C         2.90887192605191    1.00592341310559   -0.75885194960571
C         1.29599459730575    0.92556236502187   -1.40711652185717
C         1.02685017270081    2.01245048984244   -2.43497681003267
O         1.93365727847679    2.19907216066004   -3.44993252385355
C         3.23578790294542    2.68319788104334   -3.23413707499219
C         3.47554737596713    3.32440447521653   -1.85863484170881
C         3.26552542296873    2.48177046129960   -0.51844728061995
C         2.24203198770644    3.19560852419284    0.34947679758077
C         1.64335914132399    3.63700465375998    1.42036231970819
C         4.60338968903099    2.46398326081744    0.20281189063637
C         5.68126641427276    2.77651308567990    0.86654610264092
C         4.34463743402719    1.72836298702684   -3.63479798857395
N         5.58009505066246    2.54558252751317   -4.08761819961643
C         4.84951547142915    0.93938735305892   -2.45062872854514
N         3.80882511801348    0.27535316790933   -1.68035511113657
H         3.31956661557300   -1.69246734577162   -0.24688689650030
H         1.58229967287360   -1.46108659060972   -0.03904463809302
H         2.58007049384528   -1.80205932762420    1.43260730908405
H         3.81081158474315    0.32907000306429    1.00931764379220
H         2.09124683599474    0.60900340454638    1.27073270571493
H         0.53444117332287    1.09665246339403   -0.65051280920006
H         1.22432826849398   -0.11607229714194   -1.84509627017465
H         0.76106900796705    2.90891946068763   -1.84393229975279
H         0.08330617206980    1.79969804920064   -2.97291071724213
H         3.37716756908401    3.58223594269561   -3.84006839576537
H         2.77292940190827    4.20230335691131   -1.75922509243986
H         4.53149508782747    3.78203963190432   -1.95435732356763
H         0.88377086637814    4.14888569399089    1.96607809724703
H         6.69041473499365    2.83166470821774    1.21308984447932
H         3.99647222837274    1.05420955147881   -4.42102156027180
H         6.37261917336306    1.90582047620181   -4.14571886687923
H         5.38008329845846    2.83588899414643   -5.04781790025605
H         5.41799980007648    1.62823501916250   -1.79759668503675
H         5.54863268672706    0.14065987390449   -2.73437008943897
H         3.27734392374492   -0.41584500173396   -2.25071102614250
