37
 energy: -49.854741562977 gnorm: 0.323287647320 xtb: 6.4.1 (79825abcba525fcdf90b791dcacef51065a7a4e7)
C         2.57552044041519   -1.27612917470012    0.48532588250090
C         2.77508607799328    0.22529737028482    0.60336470612507
C         2.91814390722582    0.97045872422535   -0.78880542002383
C         1.30087029740901    1.01824613797152   -1.42929005325614
C         1.02950125809290    2.07675836290333   -2.48578047129341
O         1.97421651172797    2.07443956060550   -3.48316183710640
C         3.19031429060955    2.73348934029211   -3.23166803562870
C         3.42776357795034    3.35217876084314   -1.87737882383168
C         3.35161730906312    2.42465353390955   -0.57963357211273
C         2.29734645110163    3.05550737193069    0.31531463507042
C         1.69406831818505    3.53102877894487    1.36886598122553
C         4.65752614394456    2.53986281261376    0.18961340894959
C         5.72825309904190    2.73490720208976    0.90762301074498
C         4.35684428693088    1.71606493636695   -3.56139927137762
N         5.50000607555102    2.60826747951755   -4.10583034178275
C         4.82627126619801    0.91711648076498   -2.36935862756624
N         3.82853087472652    0.15947293828852   -1.62923051012093
H         3.38211270548004   -1.66299290217916   -0.13406189683491
H         1.60798756345072   -1.61884127380547    0.09698254560869
H         2.69907447105750   -1.69281344186666    1.49449605214514
H         3.64261293836886    0.46042415385935    1.22950035784413
H         1.90409028295025    0.71892250719191    1.04909126918264
H         0.65210099205141    0.97962914784039   -0.55791657772096
H         1.25422124008906    0.00477429812087   -1.93194678240236
H         0.96369744264859    3.11312408590596   -2.10466919826470
H         0.03278720884915    1.87449501354403   -2.92231502000680
H         3.18239313072795    3.50825837853817   -4.00308271295823
H         2.73879755452251    4.23895590891750   -1.76243156272955
H         4.48952390689524    3.76961351077385   -2.05635239894807
H         0.96239737496615    4.13625090201040    1.85380527143524
H         6.68097043982173    2.66476798614111    1.38608383039636
H         3.95163127305720    1.07702798902658   -4.34961470075699
H         6.29593793351525    2.02596488703194   -4.36694683524793
H         5.05974709121692    3.15685043238616   -4.84845728798998
H         5.38607041498822    1.56650291386303   -1.67003140629949
H         5.55901126269041    0.18479016657475   -2.73545956128417
H         3.29970605203291   -0.48427713722532   -2.25490070004611
