37
 energy: -49.852333352291 gnorm: 0.323782898376 xtb: 6.4.1 (79825abcba525fcdf90b791dcacef51065a7a4e7)
C         2.42608345774958   -1.26219579017413    0.46152147556210
C         2.89643829676462    0.17061355023615    0.64554592203158
C         2.91107474304865    0.90868852277609   -0.75762896199364
C         1.26933216283154    0.88697551218377   -1.33407321471523
C         1.08480646050245    2.01118434221559   -2.34023724742449
O         1.97577248246530    2.04286497948856   -3.38543472206434
C         3.22391412328733    2.66562791887667   -3.20994022693948
C         3.53568432883068    3.28074814978257   -1.82418389061612
C         3.33630497219247    2.37859673589832   -0.52164224959489
C         2.42125179984596    3.18763668864216    0.38308302764198
C         1.46757515607932    3.76605266075452    1.05833956845572
C         4.64668781348492    2.27960532827000    0.24223572499549
C         5.62649145711995    2.78290311627409    0.93988351375340
C         4.38493602815984    1.78447164671159   -3.63682705508747
N         5.48418003861214    2.74151745004858   -4.16120800354050
C         4.87858436437276    0.93583353884733   -2.48975866048279
N         3.88375186419081    0.26278427584711   -1.66841083991596
H         2.91492238721711   -1.69869690629245   -0.40704004990612
H         1.33796750484274   -1.25990805710199    0.31876140599174
H         2.68618390057078   -1.80537656475545    1.38055260345149
H         3.95491040837569    0.17388981276092    0.92760862279078
H         2.33301715512037    0.71140226853520    1.41436046338298
H         0.51402604661153    0.97132994212362   -0.55684633779716
H         1.15141939170904   -0.11619141086298   -1.84565682946287
H         1.00800226079366    2.92243739312885   -1.71786368724518
H         0.07972552875848    1.85400080630111   -2.77614713179934
H         3.16963562875305    3.50785298505651   -3.90500942832943
H         2.92103577789742    4.21916376279956   -1.69831070737358
H         4.61822280661443    3.65104290637033   -1.98106135979630
H         0.58767532846138    4.20831063943977    1.46697925900941
H         6.63044954329037    2.80594549114786    1.30464624450530
H         4.01451682160296    1.14798529890659   -4.44399748950533
H         6.30630473068853    2.17077311653129   -4.35901485711041
H         5.13417978661220    3.17562989945222   -5.01871148199095
H         5.43091554215521    1.57968552593514   -1.77946204810426
H         5.54451152409202    0.13753782312576   -2.84543350452457
H         3.32301545774794   -0.30870703845292   -2.33512322128347
