37
 energy: -49.852085695430 gnorm: 0.320817762976 xtb: 6.4.1 (79825abcba525fcdf90b791dcacef51065a7a4e7)
C         2.79554098458923   -1.44558204474946    0.37496804866058
C         3.02515149173113    0.04982059409316    0.51313910236088
C         2.90378150565396    0.92569426943678   -0.80290925426954
C         1.25011807952978    0.98782192844751   -1.34106867115421
C         0.99423995324278    2.08295277058403   -2.36355393365335
O         1.92000014792168    2.09842883622728   -3.37843837503123
C         3.14773122998306    2.77328043901124   -3.26121526987794
C         3.46439462221288    3.40191460359841   -1.88096870682002
C         3.31318276301832    2.43206770963745   -0.62129573488374
C         2.32904623165966    3.11130503449108    0.31705805566032
C         1.58149652801239    3.55795531592614    1.28747469870978
C         4.56942094980441    2.44032533372538    0.23439663635855
C         5.38389149716846    2.85791759167557    1.16299274824841
C         4.34949093050563    1.83469567787984   -3.64931540316290
N         5.57326246026820    2.73210548849910   -3.95961899334527
C         4.81635114753375    0.89135518258224   -2.56682223109970
N         3.75184181262145    0.24907915131201   -1.81077948647328
H         3.59274339244490   -1.87193667271098   -0.23049532673324
H         1.78921162550176   -1.69648738131182    0.01617879124392
H         2.86784174209496   -1.86815215377786    1.38666114028965
H         4.00431051180973    0.18303451736402    0.98582819266900
H         2.36963483807012    0.40078726304802    1.31818067500634
H         0.61351934831929    1.01108171346373   -0.46022495344859
H         1.13390479547180    0.04246489979381   -1.95324483283056
H         0.95456667525970    3.03291150112998   -1.79819183947866
H        -0.01947306562498    1.97940571580834   -2.79549801959502
H         3.13676932941280    3.56611205169745   -4.01401556374327
H         2.75235120589862    4.26890322203888   -1.75612611327799
H         4.55364417468488    3.78245696085444   -1.92935501526145
H         0.82032027495694    4.12235352536472    1.77621559875992
H         6.24138656340978    2.86940122062586    1.80024069919066
H         4.04328749748614    1.26348090986945   -4.52897585819693
H         6.29526953877756    2.03582907714408   -4.14581940275695
H         5.32467646591766    3.15997445562819   -4.85482799747298
H         5.44909545305981    1.45739338301509   -1.85733524162330
H         5.49725954601337    0.12282220717942   -2.95792381004552
H         3.16984629779845   -0.32970971003245   -2.45250973662517
