37
 energy: -49.852142537406 gnorm: 0.323342541330 xtb: 6.4.1 (79825abcba525fcdf90b791dcacef51065a7a4e7)
C         2.62599539340540   -1.36645197803205    0.17934153555563
C         2.73466479339046    0.11201480847814    0.51155863351562
C         3.00535937335906    0.94878819206797   -0.80768485984338
C         1.50729554545464    0.79810198266207   -1.68013919379966
C         1.05047372100551    2.05451309030767   -2.40333089610653
O         1.89464095856385    2.54730365385460   -3.36862930154304
C         3.22164321736373    2.90521702792734   -3.07290548811071
C         3.47906925522800    3.37680011540868   -1.62200797561004
C         3.23446692862225    2.34410252135103   -0.42871445612180
C         2.08329716226730    2.83573944254736    0.43354835220469
C         1.62178107905362    3.59447520903781    1.38819935707904
C         4.53485032987150    2.50879253654080    0.34089081648402
C         5.63247090113688    2.81213858409353    0.97590772965675
C         4.17515377406216    1.78664528851668   -3.55563213317150
N         5.14565118055258    2.41135973040727   -4.58864524703669
C         4.94100702241135    1.08582287229509   -2.45929369872793
N         4.19967146200618    0.34993400633683   -1.44628411333278
H         3.60903192543002   -1.74197729645432   -0.09727328471878
H         1.90614774327039   -1.55926168007669   -0.62627982560320
H         2.33978565977742   -1.94610513556047    1.06782451997879
H         3.63338117790091    0.13990217142535    1.13722984695811
H         1.89493869320844    0.49511524598305    1.10237649983722
H         0.66593043358192    0.42632615966939   -1.10085333759258
H         1.73697502488859    0.04027451809295   -2.48940426943943
H         0.74962128187865    2.83301497149599   -1.67734708972446
H         0.09648961399199    1.91528370420403   -2.94687599285015
H         3.34713266570047    3.77266601235773   -3.72650710190726
H         2.79008235363142    4.22790223448543   -1.34781278635501
H         4.57694616574615    3.72311546462826   -1.53062811113995
H         0.85038783197332    4.09733573282590    1.92568054804411
H         6.57812497556264    2.92333222214267    1.46056120284996
H         3.52496711635588    1.06809574068324   -4.06040260298464
H         5.72371151052743    3.09384850391912   -4.09791010072497
H         5.75077692785680    1.73627059835860   -5.06229438344706
H         5.57417026146715    1.81874403050004   -1.92444112337275
H         5.57441188459680    0.35684820336870   -2.98334888583499
H         3.92692083893512   -0.59929504647820   -1.77810385688029
