37
 energy: -49.853216507937 gnorm: 0.333721047730 xtb: 6.4.1 (79825abcba525fcdf90b791dcacef51065a7a4e7)
C         2.85689268040014   -1.33944679050696    0.40078617029905
C         3.15354673681710    0.14510151287083    0.52788449160354
C         3.07608417055209    0.89024381069764   -0.86948129901655
C         1.51449411948534    0.70915727735590   -1.61561956441552
C         1.01302294326874    2.02479983698702   -2.18822117451552
O         1.74799062191933    2.43265006870025   -3.27484096816837
C         3.07672781601496    2.87680889130946   -3.15792235803510
C         3.38850121230170    3.39060732582634   -1.73295033467185
C         3.28026177098884    2.33769753839341   -0.53716222111049
C         2.16898771348642    2.87013688315571    0.35276707270135
C         1.17287211249171    3.32265866140885    1.06200132188698
C         4.53088983506268    2.51245526485620    0.30888809906556
C         5.43717886066955    2.65446071011852    1.23544674173440
C         4.16911385080460    1.91162665918268   -3.58973865648591
N         5.10226195649326    2.63347611677118   -4.59344051301830
C         4.96485885497860    1.21476008337029   -2.51233061684139
N         4.17459517948256    0.31882352867501   -1.68161991535023
H         1.81335766880952   -1.57888155770359    0.20687505995105
H         3.23117110451229   -1.82928469039386    1.30872696752030
H         3.38551739763903   -1.80190105063829   -0.44420363667395
H         4.17929365985782    0.24690714903969    0.89857597312417
H         2.49863026607166    0.62338724273388    1.26497254381164
H         0.85966981113736    0.29134921916548   -0.85514197168636
H         1.73613136800147   -0.03974197076467   -2.43537070853050
H         0.92919965787614    2.73373871096396   -1.34323053188397
H        -0.03501585576702    1.85565275969777   -2.50113603931763
H         3.13405378278410    3.73335469565164   -3.83501425016808
H         2.74333786565579    4.27494143701662   -1.45730890177852
H         4.44249127271955    3.86205300241105   -1.75444990654580
H         0.42666914048617    3.66439716192150    1.74258796880142
H         6.33687590899138    2.83598187795997    1.78235612820030
H         3.65605435105510    1.14107443637838   -4.17014247404140
H         5.81314871147292    3.11999902889223   -4.04690494009402
H         5.69284798356154    1.95883378760502   -5.08571267658688
H         5.42855850250497    2.01909721977820   -1.91053264680077
H         5.80717888100622    0.65363200557915   -2.93996583596079
H         3.72949195502454   -0.32576172075520   -2.36858863018798
