37
 energy: -49.857580994118 gnorm: 0.325665715408 xtb: 6.4.1 (79825abcba525fcdf90b791dcacef51065a7a4e7)
C         2.83049108498658   -1.43015857894456    0.31927262342660
C         3.16178399422582    0.03684584712947    0.53417795078586
C         3.04294322994549    0.90799689771675   -0.78523152539849
C         1.41873759641578    0.78698524946830   -1.39792261585133
C         1.03918671767864    1.96169785064020   -2.28463154460461
O         1.88081654635892    2.18235826962882   -3.34775434425213
C         3.09190377617013    2.86202878638494   -3.12911019837646
C         3.34193355417547    3.38289596287228   -1.74383275087016
C         3.34999698826489    2.39925755136630   -0.48580474562110
C         2.27895410245001    2.94192636787866    0.44627545194872
C         1.32356084378867    3.15090277276443    1.30859098156969
C         4.66067617450400    2.63349645790198    0.24745111849849
C         5.66169337128118    3.04114615241989    0.97671274519105
C         4.14723628841454    1.92696464594679   -3.67624714689484
N         5.21615554031250    2.77584706840454   -4.40840813270756
C         4.79143844462313    1.07325871610809   -2.61049342893310
N         3.95454359244701    0.25107338283374   -1.74972775780287
H         3.54029423399364   -1.91977331982035   -0.34431817071010
H         1.86520407207729   -1.49463945286329   -0.19884434965651
H         2.64391214042161   -1.96612906815311    1.26014442151019
H         4.18165686046705    0.12977586158298    0.92296666113644
H         2.44298846699804    0.39500840411147    1.27984824829623
H         0.74651247496271    0.68208017693194   -0.55010605007243
H         1.44517531408001   -0.16177570886714   -2.01527080212172
H         0.92299627783871    2.88117471291741   -1.68073425383619
H         0.06215538858233    1.70627819009545   -2.73749173235171
H         3.09572229751414    3.69265458445264   -3.84006491864760
H         2.63307765256373    4.22269049798299   -1.48590017677325
H         4.37765856337567    3.87835974041098   -1.86796032655330
H         0.51546151373016    3.42475678667897    1.94795136359033
H         6.51657510869469    3.28982847361194    1.56734706851767
H         3.72043979132091    1.40574011236042   -4.53649077833958
H         5.60409709819576    3.57640148531960   -3.90902888992705
H         6.01945368807052    2.18194022590527   -4.62807323903387
H         5.33354541838639    1.75179631898179   -1.92504238081892
H         5.55597614786380    0.40866065513264   -3.03597097739498
H         3.41399265197845   -0.36911269299984   -2.38902968293629
