37
 energy: -49.855112876092 gnorm: 0.317554761303 xtb: 6.4.1 (79825abcba525fcdf90b791dcacef51065a7a4e7)
C         2.53850868919272   -1.28676839696379    0.56206379836741
C         2.76150539873541    0.21580622349894    0.58621447202393
C         2.98352435587435    0.99235012327093   -0.77817396256649
C         1.55881635930541    0.83721541104236   -1.76519902653827
C         1.11251906450896    2.15496256727100   -2.37726311318117
O         1.93984216559561    2.55494471027981   -3.39844509885077
C         3.27597106551874    2.86336707147526   -3.08840516272261
C         3.52935265590792    3.41875314295394   -1.66739037679036
C         3.31717526219330    2.43866373238465   -0.42455107295907
C         2.25430630276029    3.08377563305556    0.44982647515189
C         1.27991161844626    3.78746853750502    0.95520438842590
C         4.58548534637815    2.41316504063735    0.41279672581700
C         5.74890797720708    2.64724849496520    0.95287915368955
C         4.15447266294727    1.65991023578688   -3.59103324103511
N         5.22283293402326    2.21048873066545   -4.56813052153021
C         4.86199074514162    0.96541212076290   -2.45229193957091
N         4.13641728411182    0.29019139852422   -1.38696598693343
H         3.46826151647024   -1.82754805203320    0.39770780754069
H         1.81838624165078   -1.64430359710090   -0.18491293446717
H         2.09088252819218   -1.61122653224022    1.51162872333564
H         3.74188644219537    0.32494744966457    1.06252793452441
H         1.97758442327474    0.66402829871456    1.20713032405196
H         0.80330281290510    0.39858720680922   -1.11829161660183
H         1.90554464593613    0.11031790946329   -2.56104110228232
H         1.11423645980034    2.89754201193973   -1.55738344195545
H         0.11427196696731    2.06434206359455   -2.84652042771320
H         3.54235439836501    3.72615989328496   -3.70487809676998
H         2.81705196127734    4.29427697575416   -1.68600491370911
H         4.61006492419082    3.82514767781684   -1.64452593259839
H         0.81474629996785    4.35529055934659    1.72851006747817
H         6.62426010240734    2.78411421682660    1.54998972207898
H         3.52711286158427    0.94417677560729   -4.12768458353144
H         5.75564184289495    1.39607027782495   -4.87407644027682
H         4.72237113108659    2.51716280815257   -5.40583870741392
H         5.52692364788371    1.71830581582160   -1.98844745305348
H         5.53147527441591    0.20982398131560   -2.88601610902656
H         3.76894118469279   -0.62870802160094   -1.71272389003295
