37
 energy: -49.853580792630 gnorm: 0.326246882786 xtb: 6.4.1 (79825abcba525fcdf90b791dcacef51065a7a4e7)
C         2.38275749072791   -1.18936708983155    0.54440223894505
C         2.94939103264664    0.21981071604147    0.57883504593277
C         2.97682345523761    0.97523373935807   -0.81488377941120
C         1.34563070688581    0.79904887016477   -1.39475207564146
C         1.04602041850064    1.88919368269529   -2.41066508968021
O         2.02460263547181    1.97936069778161   -3.37061750006889
C         3.15227485289378    2.79874021036770   -3.18769091231928
C         3.37780798079732    3.39805833417521   -1.85701059239232
C         3.31036100382603    2.45968488255571   -0.56660361010029
C         2.23113864893277    2.94132519142596    0.38927167769670
C         1.40801036632158    3.48485746591519    1.24195449768537
C         4.64762734420639    2.62729251708314    0.13627503544353
C         5.75891223907473    2.45571389262926    0.79630756936355
C         4.37509314972908    1.90845043130961   -3.57402652228103
N         5.52004270656804    2.78670711276154   -4.13705863253363
C         4.94106866921971    1.05109389358816   -2.46756698906128
N         4.00947323646531    0.30348812261948   -1.63659477690754
H         2.94383924681745   -1.78211524868011   -0.17513422994438
H         1.31312044143808   -1.22243893233326    0.30116401370783
H         2.44365595359623   -1.60123265240335    1.56124733230219
H         3.95134384128051    0.17647742088685    1.01945518505011
H         2.34549248933875    0.74729937751148    1.32585169983358
H         0.66784623169828    0.82177689574275   -0.54517791205106
H         1.30158107703241   -0.11374413854761   -2.06320824133130
H         0.93773977658549    2.85535681518110   -1.88299667068402
H         0.10364901063929    1.68932939769142   -2.95555238804523
H         3.14928157156583    3.58122349748860   -3.95131474474107
H         2.62317978247627    4.21721808163800   -1.67323258900772
H         4.42108447015165    3.89290471098751   -1.87488617629568
H         0.57269347621727    3.75283775403304    1.84795328518910
H         6.66263448728865    2.61519959449443    1.34345015569081
H         4.05306548575056    1.28965496663473   -4.41500198347300
H         6.27896349868951    2.13110115680392   -4.32410332424661
H         5.23539744559671    3.21692479080795   -5.02032293929698
H         5.54552937286588    1.63426495334078   -1.74737592989138
H         5.50743463578020    0.26078299583556   -2.97930706313252
H         3.46127394555967   -0.28877552260149   -2.29555938247862
