37
 energy: -49.850234928211 gnorm: 0.331522443138 xtb: 6.4.1 (79825abcba525fcdf90b791dcacef51065a7a4e7)
C         2.61120399692350   -1.33141465302482    0.42123635466183
C         2.78127433718414    0.17439466965622    0.52919764691289
C         2.98850276218550    1.00427557408919   -0.80580149553261
C         1.50094797557247    0.90222161795895   -1.70293241023033
C         1.06185342267033    2.15723785462653   -2.43940475082999
O         1.92325724924503    2.51243177914362   -3.44890096165554
C         3.27595495889662    2.82732296769192   -3.23085968633304
C         3.45783881065053    3.45813316847241   -1.78686581536538
C         3.27105421460410    2.48088439956676   -0.53772997187851
C         2.23329971439119    3.07421051968108    0.40111269408559
C         1.51733405505405    3.47184417768520    1.41566488836545
C         4.52501609782558    2.56771728911913    0.31693466662933
C         5.59835076204213    2.65563010777928    1.05195865376088
C         4.24213738637691    1.67034936669790   -3.50653897348396
N         5.19495434577436    2.20727974801230   -4.60339586974814
C         4.98479360201078    1.10430103833800   -2.32007689849345
N         4.13905046400060    0.31701035395479   -1.43566117089426
H         3.40404774680338   -1.76931392834173   -0.18170548319058
H         1.62831720140243   -1.56515244990202   -0.00734524513000
H         2.69694919348766   -1.78560363287975    1.41806930963716
H         3.69051834483757    0.40286722532657    1.09577415367916
H         1.93870683244198    0.58602223458178    1.09630818949568
H         0.76692143457542    0.67213992762869   -0.93484903569991
H         1.61348301371121   -0.03180666969557   -2.33292615232466
H         0.76166488447836    2.98734710055186   -1.77274491425905
H         0.16720399363823    1.91837078747916   -3.04558681425478
H         3.61982320856057    3.64345026987535   -3.87203147711480
H         2.68551121897060    4.27727531490925   -1.70454329143775
H         4.50035422786888    3.95181400208557   -1.73155627739718
H         0.86133259591150    3.86513273680962    2.15848953818619
H         6.39690652299443    2.87312696888014    1.72762012324512
H         3.59608263838623    0.82580249591261   -3.75794147035298
H         6.08702721256806    1.73299451857811   -4.74490620988021
H         4.68210136492116    2.13878080422773   -5.48575391806304
H         5.54595236457382    1.80516912991968   -1.67353134691250
H         5.79495415765489    0.47922519772713   -2.72027646637707
H         3.73060335181442   -0.47916705520206   -1.96933291369825
