36
 energy: -50.503721014328 gnorm: 0.311566883588 xtb: 6.4.1 (79825abcba525fcdf90b791dcacef51065a7a4e7)
C         1.41310198432624   -0.92706991980915   -3.00727507682021
C         2.45359221240421   -0.99230856409161   -1.89886821641820
C         3.30768451098205    0.28073813863153   -1.53008712513847
O         4.30623012975591    0.40745821339243   -2.55670647220885
C         2.53010087512661    1.65722087123216   -1.53752534190698
C         3.47526679316615    2.87810019899393   -1.91408821137439
N         3.01247480553661    4.03835414921401   -1.14493251895002
C         1.67408451999214    3.70890656661081   -0.63271686268449
C         0.51908962450925    4.13251733345112   -1.54214000309797
C         1.79261020746163    2.21028695210326   -0.30710394928845
C         2.72525382356414    2.09260295964872    0.88735324617293
C         3.20202703149714    1.90544598346959    2.08639849992783
C         3.34660514767941    3.02385235881916   -3.42160535637390
C         2.73481255206672    3.30952787737423   -4.53701747353597
C         4.07335339346448   -0.00464322427706   -0.19734574598983
C         5.47669363252656    0.53139301483271   -0.15824335297236
O         3.58109459164649   -0.64686942628160    0.74532507068469
H         1.12016582104703   -1.96856496973814   -3.22332469346248
H         1.89381533222400   -0.49365549388614   -3.89004641790058
H         0.53720872702492   -0.38020790227095   -2.66780755089876
H         3.23822451783140   -1.74191768246864   -2.08424480277115
H         2.01003487567857   -1.35700606533962   -0.96392982193850
H         3.91200082951697    0.05585765830966   -3.37297668847663
H         1.72611169891128    1.55713808950645   -2.28511809822818
H         4.53847730331903    2.69771111156494   -1.75990556825140
H         2.86104153871640    4.86303434063743   -1.72279957253354
H         1.65258630591494    4.27400768401780    0.30675369182476
H         0.50863808438367    3.63955018516547   -2.51976514510055
H         0.47319288025600    5.21366638193495   -1.71526319556336
H        -0.44547955831136    3.99804994858243   -1.03907631937216
H         0.86435381972556    1.71909794961178    0.00342361284221
H         3.79274656465278    1.84318848853719    2.97150508978942
H         2.69648576331401    3.47516844375972   -5.58908975075948
H         5.52652907787936    1.58626798273716   -0.42249744792796
H         6.10140953709205    0.00312569458991   -0.88560531451052
H         5.90406703600886    0.24828258816032    0.80772291405887
