36
 energy: -50.514854769831 gnorm: 0.307919561169 xtb: 6.4.1 (79825abcba525fcdf90b791dcacef51065a7a4e7)
C         3.42111906264765   -0.32739285012676   -3.74787867745251
C         2.94932544439845   -0.76967345738707   -2.37047516544368
C         3.32675398152633    0.30299377767534   -1.27820514801683
O         4.74896267249200    0.50576983132708   -1.33567619747209
C         2.54176719340870    1.66896378480721   -1.40980321899742
C         2.77429251839981    2.64782356721935   -2.64002676503518
N         2.68442631448223    3.99663753640363   -2.07029784748054
C         2.19894889211641    3.88724821519610   -0.68663069919477
C         0.67667447953538    3.96243902049932   -0.55420452986721
C         2.77950939873624    2.55696946933394   -0.17747374860671
C         4.23760778287599    2.66767512017735    0.23736955074127
C         5.41701303229681    2.98299811279784    0.69521733708732
C         1.77885097814162    2.48575975737846   -3.77723247030625
C         0.78223387736383    2.40125016749473   -4.61368765654560
C         2.85485914928386   -0.23854679885513    0.11029766302491
C         3.90393231885917   -0.58437174882677    1.12915893187085
O         1.67149535556856   -0.54230122900455    0.33565269619569
H         3.30929382227289   -1.20005877127954   -4.41357401390344
H         4.49923644607411   -0.14236470822339   -3.78845115598496
H         2.86738680677028    0.53101288779306   -4.11936952370973
H         3.35537191971996   -1.71038532946075   -1.96784182741490
H         1.85537699725799   -0.71274108778736   -2.30808369830087
H         5.01291206676406    1.32279797815076   -0.87946081083762
H         1.50518116879684    1.29608600470325   -1.36783112469771
H         3.75433230212311    2.53931908550282   -3.10314432129831
H         2.15384801808584    4.61450035292593   -2.68160136075988
H         2.60149363846119    4.73297084510639   -0.11644009797678
H         0.23452215183279    3.27721867228238   -1.28485571696327
H         0.41472295535275    5.00087107255314   -0.78658716600577
H         0.25032331546432    3.73948261610317    0.43071342619445
H         2.32337118069493    2.23738055042086    0.76547628919558
H         6.38577242486528    2.94807620363753    1.13852866042614
H         0.18753384699760    2.44376156523600   -5.49702588791975
H         3.43645294958274   -1.24501343138931    1.85723214967152
H         4.21867372328265    0.39073493198179    1.51451145072387
H         4.80347149798843   -1.00852683090864    0.67439294492167
