36
 energy: -50.519523782229 gnorm: 0.295530035274 xtb: 6.4.1 (79825abcba525fcdf90b791dcacef51065a7a4e7)
C         3.36554584610443   -0.40351586935395   -3.71775743557879
C         2.85577044534638   -0.73533784500835   -2.32295816608594
C         3.33830607294493    0.32529306735166   -1.26072348379102
O         4.72360790452232    0.64690376574446   -1.47192003009052
C         2.35462161883677    1.55734715288800   -1.37821383944581
C         2.76329416421853    2.47454490114204   -2.61004968408849
N         2.89705338651625    3.83744895312394   -2.08415318526737
C         2.24667354752567    3.94142425279935   -0.76947287148220
C         0.76496901105016    4.31666635072142   -0.83470136192655
C         2.50494557999025    2.53545507013271   -0.20160049853891
C         3.84985958541364    2.53670083742579    0.50664121362856
C         4.97359968007073    2.93326842331148    1.03578415151094
C         1.79226205089262    2.43573698704139   -3.77880799617509
C         0.69740787312720    2.74496625948760   -4.41576673375219
C         3.09324789116407   -0.36082987390446    0.12241524567912
C         4.33796462677014   -0.71618692392387    0.88571681811857
O         1.97196368511798   -0.58603384968545    0.60760220997621
H         3.52101567326679   -1.30432875791210   -4.33546792211888
H         4.30180716441857    0.15288521432981   -3.60797943220774
H         2.66665593366153    0.30757695125396   -4.15063751407537
H         3.27559292304296   -1.73653488015458   -2.14053078197204
H         1.76691091685189   -0.82596129016769   -2.22281076172792
H         4.86306333489868    1.49096915875865   -1.00992159890490
H         1.31609742794728    1.20023834419120   -1.47439524616481
H         3.72276740871213    2.15206520013401   -3.01272452004469
H         2.54277625680150    4.50786482846236   -2.76385168165786
H         2.68956621323950    4.76374145453378   -0.19497582547424
H         0.27963356128275    3.73369316538643   -1.62430159415540
H         0.68504960860733    5.39191892434955   -1.03067637433025
H         0.19226691463309    4.09947447953256    0.07435762988567
H         1.77498433945465    2.27138167631737    0.57091212029559
H         5.88501164808409    3.05252478976721    1.57554831553090
H         0.06294052610947    2.56453230004497   -5.25281904791994
H         4.05814318841613   -1.36924177180201    1.71051638615044
H         4.84814656674442    0.17890849885860    1.25573076038956
H         4.98703422982791   -1.23278230124566    0.17316630277310
