36
 energy: -50.515523764760 gnorm: 0.294316949952 xtb: 6.4.1 (79825abcba525fcdf90b791dcacef51065a7a4e7)
C         3.03319266070003   -0.78557306957187   -3.61039134829134
C         2.83080830910681   -0.86514539104762   -2.10435331064556
C         3.28862862971743    0.37776502947296   -1.24896142861593
O         4.65261068465014    0.62846449605074   -1.62817282755255
C         2.34445911442707    1.64325359240090   -1.32945322593648
C         2.81300810828952    2.53169022851828   -2.56104839689063
N         2.89556478061719    3.91007844901477   -2.06587530632499
C         2.27826780346793    3.97640478844291   -0.73293330423160
C         0.78871790359295    4.29558618098068   -0.87390870237828
C         2.51036462851495    2.58307640238691   -0.12408200081754
C         3.96388008530537    2.61214902703022    0.31959491336233
C         5.06985696247437    3.21902373219750    0.64909176698961
C         1.81580866974653    2.34689672011273   -3.69323654183421
C         0.95723720105263    2.54218933054020   -4.65488129089404
C         3.11175702942341   -0.12581642406209    0.22039661333377
C         4.32304219558187   -0.67583562807700    0.91932061125933
O         1.98150395102911   -0.20489512503222    0.72998076438178
H         2.64782524309262   -1.73026559749390   -4.03021148755428
H         4.06783804639428   -0.57411637306866   -3.89851217964490
H         2.39837847112256   -0.02843572571239   -4.06342473489918
H         3.38750764015585   -1.69062070432220   -1.63466988571801
H         1.77290013370871   -1.03622389259970   -1.86893960530870
H         5.01291291637709    1.21073383311825   -0.93789645321058
H         1.30347254266263    1.32714975438092   -1.50759745115976
H         3.78057920788410    2.12148626899138   -2.84787228233838
H         2.51353883335061    4.55481209755511   -2.75532034951412
H         2.85406002610202    4.78092482081985   -0.26005151295447
H         0.28179777965266    3.58062068467351   -1.53021129071824
H         0.57098382532918    5.30093698222518   -1.25182807206594
H         0.28909910669702    4.26943249020051    0.10140934602868
H         1.84180803023719    2.42903749591200    0.72953266446395
H         6.13321412179895    3.26821039314235    0.70469266513218
H         0.30818280473951    2.16002607481232   -5.40883183063463
H         5.16729761721066    0.01049571455857    0.95477558744545
H         4.71005948318292   -1.57272906447396    0.42516322945284
H         4.07684390883021   -0.95825517638051    1.94670367475923
