36
 energy: -50.522329549768 gnorm: 0.305010050163 xtb: 6.4.1 (79825abcba525fcdf90b791dcacef51065a7a4e7)
C         3.26744412816300   -0.58774471395475   -3.57126324077699
C         3.02312874946798   -0.81718761654774   -2.08697629849530
C         3.41108963799303    0.41003951141437   -1.17619586185654
O         4.77263434668262    0.78629308452954   -1.44401642326329
C         2.42842085317787    1.62398655890427   -1.42133048524212
C         2.80392979082252    2.55594120277132   -2.65264607841575
N         3.01882102691663    3.91542832921246   -2.14512010114193
C         2.24525347796732    4.04624977995760   -0.90146897297740
C         0.75193552227007    4.32758540049164   -1.07856073173972
C         2.37330267734430    2.64721721711341   -0.27517500600584
C         3.70378144645182    2.55274086002554    0.45372969992719
C         4.85219165650611    2.68773235206444    1.05620892626667
C         1.69262964750037    2.49795570833343   -3.68804700327231
C         0.55344864205033    2.65295211158448   -4.30309788332930
C         3.22424149409812   -0.16919911447860    0.26375599389462
C         4.36030991233839   -1.02599023656596    0.74695906208007
O         2.09051661329511   -0.20189978052168    0.77070772916255
H         3.07992107537568   -1.44635649571294   -4.23821292583735
H         4.25250730478399   -0.16360104333313   -3.79028678587434
H         2.55880191446260    0.19434314221514   -3.83135951077079
H         3.51000933871874   -1.74963407488485   -1.76229636965389
H         1.95312453583520   -1.00386333541774   -1.93173344104289
H         4.81521990014986    1.67377561033988   -1.04917722196966
H         1.41059637033978    1.24126923430859   -1.60263367147649
H         3.74105235048323    2.23448417245810   -3.10563147517742
H         2.83838698757151    4.62819320202758   -2.84965510217244
H         2.73950384070884    4.79683643188786   -0.27318351561247
H         0.31011303661928    3.43830313557403   -1.53991386004029
H         0.61277157899068    5.20858394421711   -1.71529959453935
H         0.22427329791540    4.49284199725187   -0.13208775815465
H         1.56606659128276    2.55618784814412    0.45928906946916
H         5.85953221645104    2.67190298525598    1.40442388018949
H        -0.22854391814567    2.54833213555563   -5.01955031640133
H         5.20621632901630   -0.97131663481404    0.06393041703661
H         3.95791231407030   -2.04019982205184    0.83554144775379
H         4.67806040181420   -0.72797745442006    1.75001109359968
