36
 energy: -50.515024917515 gnorm: 0.308351665015 xtb: 6.4.1 (79825abcba525fcdf90b791dcacef51065a7a4e7)
C         3.12142171155316   -0.65841555195732   -3.62239719430236
C         2.98850556888841   -0.83940977055228   -2.11740013064940
C         3.37150747502019    0.40648358038773   -1.23016827769804
O         4.74316727080616    0.76071125824246   -1.47546551609254
C         2.32714204527765    1.57598300954658   -1.43257445261758
C         2.73448593104720    2.43681457637911   -2.70486547700057
N         3.01105352742716    3.78651621953679   -2.20109773168181
C         2.29895233884793    3.94844376362983   -0.92482170603262
C         0.84086445385341    4.40530789976158   -1.00074673667169
C         2.34403379040548    2.56445408219306   -0.25514039206119
C         3.66874095911723    2.40245136833459    0.47239493689008
C         4.52167787236852    2.63807968795755    1.43001065422978
C         1.55159530226348    2.63879980903762   -3.63780549885111
C         0.70932680772832    2.96079684358518   -4.57958386654120
C         3.30482766898765   -0.18558522283033    0.21513420528710
C         4.57787468332173   -0.69978644308884    0.82601558401172
O         2.17681777513555   -0.44900570083196    0.66413845655398
H         3.06927069373957   -1.64165093471600   -4.12012143900309
H         4.12317217102210   -0.28995486487114   -3.86519622118017
H         2.33160874008215   -0.02584490712227   -4.01930412995649
H         3.78273842664541   -1.52841547994174   -1.79122307781179
H         1.97774999672875   -1.19140365928086   -1.87588273305140
H         5.01985507827904    1.59164184685655   -1.05316827323317
H         1.32309935011883    1.12326579951788   -1.48006602504329
H         3.56580626329248    2.05452208239295   -3.29604059071632
H         2.70297347937974    4.52481617467317   -2.83114505866426
H         2.94246947973426    4.65125975074562   -0.38228900059861
H         0.13961291703182    3.63567825852679   -1.33955827349509
H         0.78510152692539    5.24493630774895   -1.70279805040911
H         0.47888610094715    4.72413387151351   -0.01643483222422
H         1.57820375890326    2.40722125681604    0.51175993969982
H         5.51559704712794    2.70395834869203    1.80951548368654
H        -0.14706775322371    3.14755869994999   -5.18577701655702
H         4.87035376928140   -1.62862349366936    0.33940206757497
H         4.39537517364723   -0.91985243298558    1.88273533398273
H         5.42192982265708   -0.03595434155267    0.61916244125145
