36
 energy: -50.515697574434 gnorm: 0.305598785294 xtb: 6.4.1 (79825abcba525fcdf90b791dcacef51065a7a4e7)
C         3.78209400605279   -0.50704093580527   -3.77342981694064
C         3.06103326365681   -0.65382112726921   -2.44152563407642
C         3.43575448814792    0.43514639201500   -1.36456008127379
O         4.81994688050654    0.81826707839854   -1.43035166075483
C         2.47925076928240    1.68812985793136   -1.48509798092500
C         2.79124655920708    2.83608865415627   -2.53891660137657
N         2.75389798638456    4.11678064551730   -1.82449432853754
C         2.02929399058715    3.95518880345008   -0.55523224302299
C         0.52753220119452    4.23265692060270   -0.64596644678306
C         2.28950871270702    2.48529603241493   -0.18423850188042
C         3.49672003474009    2.26203308614092    0.71197356560970
C         4.73348979496797    2.31598824218876    1.12128924054138
C         1.81453419010764    2.74958807878277   -3.70036223068613
C         0.83482466817953    2.51918673995038   -4.52929483970767
C         3.10407776151912   -0.25191838568752   -0.00007355421428
C         4.31620261998474   -0.92578251352630    0.57862165269849
O         1.98345649851344   -0.24336472835104    0.53615056741771
H         3.64495540137814   -1.40066463126676   -4.40575146266581
H         4.86427669998449   -0.42976436392337   -3.62807653088852
H         3.55970332096813    0.37647070675621   -4.36624920397743
H         3.49581896932553   -1.58658484320131   -2.05057882623869
H         1.96776895118929   -0.66396377545000   -2.53386981980751
H         4.96339151745042    1.58904402936045   -0.85531837571574
H         1.48420039084070    1.30163895366586   -1.76043339635104
H         3.79535828425788    2.74384427162330   -2.95120252134892
H         2.25769834041617    4.82741428846960   -2.35904601682135
H         2.53233649327240    4.60056739142766    0.17472739287784
H         0.12250544856536    3.56392634448621   -1.41253640982550
H         0.26540917848931    5.26321635337988   -0.91091962787100
H         0.04986694852955    3.94567082256279    0.29797377348847
H         1.45874534009945    2.13878064954150    0.43955090425004
H         5.71817276507530    2.25886682008488    1.52548698274780
H         0.25387562488446    2.49215279293002   -5.42233971614765
H         4.90089311145099   -1.44005214693740   -0.18212717074822
H         3.92708975913464   -1.67190910127112    1.27882022792033
H         4.97673672607451   -0.20833822163383    1.07345369542251
