36
 energy: -50.520911611874 gnorm: 0.309192495692 xtb: 6.4.1 (79825abcba525fcdf90b791dcacef51065a7a4e7)
C         2.85803629194925   -0.56603219468989   -3.68814418583680
C         2.78549860317923   -0.91748503448865   -2.20940791585493
C         3.30080265228624    0.26166590859192   -1.29826257058340
O         4.65478181295145    0.57874963807627   -1.66336108624724
C         2.43613657784255    1.58215684093318   -1.38799880917076
C         2.85845988538421    2.60472709208453   -2.52890966777255
N         2.96681610398994    3.92224872482804   -1.89301520055785
C         2.13533338539434    3.89893834672064   -0.68046324519590
C         0.67677985846565    4.24428095759304   -0.98684506216746
C         2.41930173927893    2.48556882833299   -0.14410384013788
C         3.74840549482307    2.71360167884730    0.55724185220284
C         4.88920686518891    3.05464315739631    1.08857303820928
C         1.78117658583716    2.55697865581787   -3.60016414754042
C         1.01527308504141    2.69102642924760   -4.64681014051580
C         3.27570281323349   -0.28633553477033    0.16562107958233
C         4.59874674230888   -0.68323741276729    0.75744142261822
O         2.19318598348817   -0.50999205982022    0.73266301379168
H         2.74227743628148   -1.48672535447082   -4.28490625193263
H         3.83948997187068   -0.14831223319554   -3.93406558926841
H         2.06632302348685    0.14155082553370   -3.92052671207055
H         3.43298723789475   -1.79510640984977   -2.05952345894955
H         1.77396407060794   -1.14178940793598   -1.84837797637943
H         4.97516683859426    1.32458720631755   -1.12818213546478
H         1.39606798316671    1.29905638903368   -1.61912975591466
H         3.82192221662305    2.44774341648441   -3.01246476195546
H         2.75122375351103    4.75240228905076   -2.44194576922455
H         2.53273243299395    4.60123847761292    0.06200216307576
H         0.25708992261750    3.57834826623078   -1.74794345913479
H         0.73160861335890    5.24464784041140   -1.43094113719340
H         0.04230252495168    4.29064481063882   -0.09418770408742
H         1.65882760052065    2.12131045739263    0.55471575478718
H         5.87233440655952    3.39359896939034    1.32268498540218
H         0.29278180948429    2.61360152061054   -5.42640844998818
H         5.30033830001514    0.14853362505780    0.72579933460257
H         5.12400207836764   -1.47521677765967    0.21405642462760
H         4.45342566222047   -1.00472102069939    1.79253583304176
