36
 energy: -50.517801847837 gnorm: 0.309315896725 xtb: 6.4.1 (79825abcba525fcdf90b791dcacef51065a7a4e7)
C         3.54561563411272   -0.33682968628576   -3.82328118232373
C         3.08893797436274   -0.64583680947465   -2.40504217017254
C         3.40285997534963    0.46844800925073   -1.33455470799048
O         4.72258048913887    0.99576010511183   -1.55222034396104
C         2.39283025423611    1.68011660461053   -1.43989010804377
C         2.75975855830392    2.76037117948672   -2.54627981066891
N         2.84531190347690    4.03774125701747   -1.83005888960277
C         2.04520349235061    3.90903421162033   -0.60309102184011
C         0.57015755813306    4.09471368872097   -0.96402363017705
C         2.34933327197117    2.47847532109602   -0.12670972711201
C         3.53730477631114    2.32096941938316    0.80833953578309
C         4.46300868267238    2.12458002174136    1.70530851341907
C         1.75985548025406    2.69250584836601   -3.68908054362845
C         0.90721280965838    2.73459089403943   -4.67461295795897
C         3.26974897705973   -0.28558689935853    0.02838468471782
C         4.55464489617430   -0.91245024328478    0.49132368459586
O         2.25030782138029   -0.30753476344004    0.73807442298236
H         3.33642292867644   -1.18443140064990   -4.49782600566847
H         4.59826044671998   -0.03790186555633   -3.85155992894195
H         2.85270434221101    0.43523565892112   -4.14774122058687
H         3.63744776416255   -1.55291861421336   -2.10794659606455
H         2.02215500063476   -0.89902736039383   -2.36349920568503
H         4.74150070457728    1.83088828940992   -1.05468672821114
H         1.40275105354238    1.25979203791746   -1.68151068816631
H         3.67942060329343    2.46837764312120   -3.05193837228346
H         2.65507354717722    4.86285138340589   -2.39571109493316
H         2.30297812967686    4.68831525220535    0.12401257685288
H         0.22142554832989    3.35965093032448   -1.69678927248360
H         0.39041228107689    5.10465730322516   -1.34959715670535
H        -0.02166490079774    4.04833652759148   -0.04253375522981
H         1.45835221723819    2.16224109320056    0.42601315576898
H         5.28476680442359    1.98645665299829    2.37004509530533
H         0.21244834533086    2.46835610829770   -5.43762223992384
H         4.53199790087363   -1.21583668173068    1.53655991796329
H         5.41928965159628   -0.27267320833730    0.28769033292327
H         4.66244840584351   -1.81548864639493   -0.11595748571335
