36
 energy: -50.517824518012 gnorm: 0.298460541792 xtb: 6.4.1 (79825abcba525fcdf90b791dcacef51065a7a4e7)
C         3.25988218030668   -0.46858590896427   -3.69700787003004
C         2.94179349757138   -0.71577196206138   -2.22964273980597
C         3.41883337805641    0.43328656404708   -1.26102592545265
O         4.77044482252616    0.83310859370130   -1.54455269566706
C         2.40473930159666    1.63771203693791   -1.40374533080819
C         2.72560923884970    2.56032336442743   -2.65734626658911
N         2.97015954733611    3.89476761907801   -2.09929631125539
C         2.27392183669846    3.99501164915679   -0.80802046909007
C         0.81648598855407    4.43512493470535   -0.95865500087957
C         2.41176683222572    2.59020228276137   -0.19692127958684
C         3.66701026645694    2.50464078256345    0.65598241999006
C         4.85608104731415    2.42336459391761    1.18471181132155
C         1.59421569292172    2.48145031702638   -3.66934085285433
C         0.57013711392445    2.21804917841323   -4.43218270960850
C         3.22509931626390   -0.17669888872858    0.16525448257656
C         4.42992754279276   -0.88474823859101    0.71777844922622
O         2.12437517073056   -0.21599328493689    0.73994030649886
H         3.16926476307214   -1.42175668549499   -4.24514556033067
H         4.29835921178765   -0.12277473085361   -3.71110455555492
H         2.50833006611718    0.21074746899212   -4.09091249240871
H         3.46982560110378   -1.62999778431584   -1.91771420480015
H         1.85836240615929   -0.86837283431023   -2.14750123228890
H         4.83143548512757    1.75937137209243   -1.25532240809329
H         1.40707741396056    1.19245430174882   -1.55114400173565
H         3.60921374523676    2.19797628587667   -3.18144238431265
H         2.85592976365359    4.75663004205191   -2.62948918283634
H         2.81530621477692    4.66739122165633   -0.13184370355950
H         0.20641817559253    3.88786641533296   -1.68474186408839
H         0.88915688204303    5.46204500400373   -1.33430846871813
H         0.22624558955656    4.48650910461938   -0.03641631842681
H         1.60098727396756    2.32481026562823    0.48977916759160
H         5.47507855789425    2.60150374788374    2.03403374712432
H        -0.06125213797163    2.24439269157838   -5.29032920585945
H         4.12168521773457   -1.82093917490646    1.17995611657520
H         4.95830416946137   -0.30700351330090    1.48290648819025
H         5.17659217869945   -0.98953914787273   -0.07430813377366
