36
 energy: -50.517140245347 gnorm: 0.310296130320 xtb: 6.4.1 (79825abcba525fcdf90b791dcacef51065a7a4e7)
C         3.00831195930420   -0.32242992097119   -3.79846122518353
C         3.17738404944694   -0.76577126265863   -2.35267256221864
C         3.47931560573866    0.36392191803954   -1.29496195657985
O         4.81811889953569    0.85378139379844   -1.48135408951851
C         2.43447174733602    1.52877097906923   -1.52040447014417
C         2.86514680685325    2.61366997766123   -2.59892087350980
N         2.91722061794583    3.91000668459006   -1.91425631151539
C         2.10457719133257    3.85678607560739   -0.68993308636254
C         0.59472126329654    4.02250699031902   -0.87263884957142
C         2.29179694524319    2.39280471001170   -0.25675856031004
C         3.53733622405072    2.32233651416045    0.61161217868786
C         4.62047357836337    2.59814334796522    1.28302411363467
C         1.89577841973459    2.78613575166842   -3.75693030583995
C         0.91100580869972    3.00278713156908   -4.58356800044626
C         3.32253737534502   -0.31333934422873    0.10526256568524
C         4.55638099504136   -0.82338376489478    0.79498155356786
O         2.20215722464795   -0.31196697581360    0.64205668821409
H         2.89983719007151   -1.22740588159816   -4.42011443000243
H         3.81335380161651    0.27451865830097   -4.23866419355140
H         2.09404543349777    0.26120109537724   -3.86900784378659
H         4.02208072660620   -1.46793366779679   -2.27931285198441
H         2.27167354118404   -1.28326771156184   -2.01246220916683
H         4.88774699972920    1.55273321083426   -0.80907807332278
H         1.42491701910500    1.11639918519211   -1.68183190908503
H         3.88073156585210    2.40180754938753   -2.93123244241451
H         2.57541589412818    4.60783804450078   -2.57240576461808
H         2.44403199583394    4.59848185792464    0.04291352818371
H         0.13975723791137    3.23116107543407   -1.47733393113068
H         0.44112477696516    5.02454281831431   -1.28892449309478
H         0.11436805768472    4.11615282505450    0.10819727975597
H         1.42315187250455    2.06777887637055    0.32562264690248
H         5.46388670487243    2.81687882766493    1.89706671284973
H         0.08674691165383    2.92675568445500   -5.25481926819596
H         4.25767728855348   -1.30580595611492    1.72402403018115
H         5.21501505637409    0.01736694149386    1.03525466543832
H         5.03257658458848   -1.53941066497392    0.11938284990268
