36
 energy: -50.520431107591 gnorm: 0.311846922004 xtb: 6.4.1 (79825abcba525fcdf90b791dcacef51065a7a4e7)
C         3.03736191382604   -0.71842691972942   -3.58963093923471
C         2.90799323670738   -0.89696381837963   -2.08403136190368
C         3.36725870713708    0.35891433445987   -1.24858756600762
O         4.73926108573955    0.66739697329428   -1.54783078484807
C         2.44181948854101    1.61602425312072   -1.49885382929967
C         2.81531186821257    2.52776846544384   -2.74581428795281
N         3.06282688742851    3.85468137612027   -2.17135408364071
C         2.31987086782784    3.98377319649636   -0.90899883522094
C         0.84790870638313    4.36579264018564   -1.07602656294883
C         2.46842012560126    2.57889558502570   -0.30057067295879
C         3.78905423762074    2.59714332011389    0.45175512593405
C         4.72275973838929    2.67811321432659    1.35822509420414
C         1.62979308689604    2.53213324695755   -3.69709317541451
C         0.53303827225684    2.84391690952169   -4.32952073996314
C         3.23915534128565   -0.12635646818674    0.23195040966215
C         4.49258620483644   -0.69596737797035    0.83418138680110
O         2.14486578368511   -0.38906211790602    0.75818000839701
H         2.78161231022430   -1.71310953045217   -3.99261929702544
H         4.02725126134654   -0.38126660254806   -3.91314388442870
H         2.34197127517040    0.04923604548367   -3.91919231298480
H         3.55571592322811   -1.75313589136890   -1.84041103883658
H         1.87047445487213   -1.11121184824411   -1.79853226506268
H         4.89269255710300    1.55151069942894   -1.17348007252814
H         1.44317725415657    1.19507115208990   -1.70089893717084
H         3.68764986768539    2.27543740837850   -3.34754887303439
H         2.82577019086213    4.65115955405815   -2.75990009164919
H         2.83034625504978    4.74950772862339   -0.31278423152194
H         0.31714386210054    3.53997736907599   -1.56099519939919
H         0.75905373859494    5.29889131616179   -1.64382324182913
H         0.44470078565381    4.50033075932164   -0.06564489165445
H         1.71375467284876    2.21184648642631    0.40306909192732
H         5.55618353577245    2.69323173198839    2.02261609777212
H        -0.29651238487397    2.96353224857019   -4.98777574428039
H         4.50448807556884   -0.67348720236145    1.92249567089166
H         5.26978556577126   -0.05784082189347    0.40157602191957
H         4.55881044546230   -1.69876672151854    0.40302225426063
