36
 energy: -50.516086852240 gnorm: 0.316068493502 xtb: 6.4.1 (79825abcba525fcdf90b791dcacef51065a7a4e7)
C         3.50415453522198   -0.34208219184020   -3.73608600511355
C         3.05934321922840   -0.76445622682146   -2.34353982902973
C         3.41953860224599    0.36760334296606   -1.30680384834304
O         4.81220575807470    0.67080485384249   -1.49560433233861
C         2.46518401502532    1.60955111908801   -1.52167446234741
C         2.92402460898186    2.72491846530350   -2.55661672496360
N         2.98814565450196    3.93064066352593   -1.72349694696371
C         1.97086064419266    3.83369282345178   -0.66617890434054
C         0.53364620765960    4.18251993298273   -1.05764285168204
C         2.28060846496378    2.39653457550767   -0.21388997804237
C         3.60352241003979    2.47475779458011    0.53054362857091
C         4.76041681522927    2.55579305851750    1.12642827305008
C         1.73679098744567    2.74047216313632   -3.50563716028966
C         0.68846943980732    2.93853127473444   -4.25519657328876
C         3.15450259595196   -0.29809515976299    0.08261774505838
C         4.38765733927383   -0.64101848347818    0.86999354038674
O         2.04868859453398   -0.82870118381081    0.28018832627192
H         3.31561573777092   -1.13123321665435   -4.48367864494794
H         4.56812505376193   -0.08551358237037   -3.75500465942153
H         2.89515461804861    0.49107165958639   -4.07734694769411
H         3.67728354511016   -1.63267710499029   -2.06737243824813
H         1.98462923790376   -0.98317209675914   -2.31175290961502
H         4.92964224532205    1.56059695489607   -1.12168529936969
H         1.50630012116660    1.16979529762030   -1.84177845582087
H         3.89002056618259    2.51554667277999   -3.01459523897440
H         3.06898263701019    4.82230379314341   -2.20863817581216
H         2.27348918940085    4.54229305487008    0.11401852367586
H         0.19305885106828    3.45286376039080   -1.79958549131130
H         0.45068987966712    5.17470138936472   -1.51552451128572
H        -0.13353000835907    4.16946463203711   -0.18801436471484
H         1.59287369628980    1.92192281135996    0.49400723702035
H         5.72985795081871    2.69958406744063    1.54565045822136
H        -0.14209084084832    2.99115611619222   -4.92090072926008
H         5.29249820643768   -0.46166188695100    0.29191983276063
H         4.34372616815192   -1.70174884014422    1.13703831019429
H         4.37334637093429   -0.14774982731049    1.84588881906154
