36
 energy: -50.517514095133 gnorm: 0.302411937733 xtb: 6.4.1 (79825abcba525fcdf90b791dcacef51065a7a4e7)
C         2.96642494119301   -0.60031961549161   -3.59528202056115
C         2.71884038161260   -0.83595759464929   -2.11250812548456
C         3.35738476719922    0.36397796445945   -1.31342313169686
O         4.69841552638732    0.57495986065660   -1.78694372009134
C         2.45819277848812    1.66273133844013   -1.37737476624839
C         2.85693244658592    2.71053272396827   -2.50378651608876
N         2.86993155381081    4.01568669925249   -1.83418199590872
C         2.04241969023773    3.94616312518842   -0.62068303724996
C         0.54549524572338    4.12902769511685   -0.87814662451480
C         2.39627776928366    2.53743110773605   -0.11452947353315
C         3.71598116139586    2.78687479333788    0.59720253351054
C         4.99363288736295    2.60015659423230    0.77828911222149
C         1.95144744882656    2.60098669776268   -3.71972316577599
C         1.22723367065832    2.60103386967831   -4.80395524332704
C         3.24450087648218   -0.19233305924515    0.14317092772709
C         4.51110909724423   -0.74468395981057    0.73379753501064
O         2.15081607206292   -0.21363492688994    0.73206929655692
H         2.91207955230760   -1.57501003185751   -4.10931134554419
H         4.02515991718861   -0.32778791117215   -3.65028526105639
H         2.35657017015006    0.17052607346571   -4.05935028433162
H         3.21709193309356   -1.77168981185363   -1.81573079908618
H         1.68052092123653   -0.95028262681711   -1.77683019033130
H         5.14436387804633    1.16295308892395   -1.15391071355981
H         1.43639572235448    1.28884658471546   -1.55471919450233
H         3.84268514839240    2.47069248270032   -2.90064586994506
H         2.61117834549744    4.79171559511760   -2.44063537556886
H         2.40263162862675    4.69064319701765    0.09931914932684
H         0.08299165794188    3.47844531751392   -1.62761961553163
H         0.34495797220580    5.16201796688088   -1.18421412936973
H         0.00747574311455    3.98180009914298    0.06546733630795
H         1.74013582506905    2.10403057479134    0.64770124232266
H         5.91389897699792    3.05668034762902    1.06278101030554
H         0.70000462006464    2.54294175454178   -5.72830182403922
H         5.29729502008054   -0.86996081532480   -0.00869314162091
H         4.29725425627222   -1.72703920948996    1.16696727165465
H         4.76478449662272   -0.04671609705366    1.53653038491784
