36
 energy: -50.520227896859 gnorm: 0.311442162935 xtb: 6.4.1 (79825abcba525fcdf90b791dcacef51065a7a4e7)
C         3.54058000375254   -0.64704240748318   -3.67699249857435
C         2.96286454399594   -0.82190690207354   -2.28017145253273
C         3.39660124047563    0.36376059136225   -1.33561539888993
O         4.73631658589378    0.78256045426734   -1.64685173620436
C         2.41200095685410    1.59447965099124   -1.45926499089300
C         2.65462866932114    2.56640099577758   -2.69303367724126
N         2.90789976821989    3.92185440961449   -2.19246812095642
C         2.36404671394833    3.99890945521494   -0.82847563698392
C         0.89788745619327    4.43521534290282   -0.80558607728249
C         2.48876883040790    2.56985899647662   -0.27332520565917
C         3.75024328662815    2.43968573812491    0.56461196276106
C         4.68055679581492    2.66180763946097    1.45074318790525
C         1.43922686467017    2.51210468983686   -3.60421736905083
C         0.43612658616039    2.46853094756814   -4.43604424138505
C         3.22946501231423   -0.14224161498739    0.13405061633257
C         4.36026434176922   -0.91490205311425    0.75252971381185
O         2.13172122458575   -0.01675095609837    0.70204020014340
H         3.43108396225237   -1.54346802368820   -4.31073748078281
H         4.58117400720423   -0.32732373866899   -3.56226358297676
H         2.99073104209724    0.13327838745140   -4.19684906161946
H         3.39449559745260   -1.72942509525515   -1.83069227574293
H         1.88260112507092   -1.01351099662099   -2.29343770915728
H         4.78774741663232    1.67487607976638   -1.26414499317597
H         1.38778786914933    1.21926316635604   -1.61898414114197
H         3.50347507935023    2.28761733643766   -3.31630610014022
H         2.44848652144915    4.65805720010862   -2.72529519572993
H         2.96054986491704    4.68709623456467   -0.21774713742054
H         0.27245290423580    3.67399818199757   -1.28334837874579
H         0.71562135318788    5.36421586946805   -1.35758109791642
H         0.61756581352916    4.56792438312136    0.24577320610185
H         1.70190217526955    2.30711060122432    0.44162798769736
H         5.32486473445354    2.68481444131214    2.29961136819727
H        -0.34965537240494    2.46124228531944   -5.15594378971931
H         4.30158772929113   -1.96176314418724    0.45976033579932
H         4.42080953290517   -0.78290257182559    1.83756527040080
H         5.31485566212348   -0.57342912407925    0.34260043152001
