36
 energy: -50.517343507705 gnorm: 0.296392359996 xtb: 6.4.1 (79825abcba525fcdf90b791dcacef51065a7a4e7)
C         3.34116360198829   -0.98479640829678   -3.45781570444799
C         3.03925014876137   -1.00178242873987   -1.96650704608912
C         3.36425157844832    0.33563267127384   -1.19721127296147
O         4.66528426191403    0.82253855170457   -1.56779893742634
C         2.32133201300418    1.50373341663661   -1.41459520803166
C         2.46235109559553    2.25058595803732   -2.81030628152089
N         3.03182132764170    3.54643740972004   -2.42502874075890
C         2.44000832882069    3.96253203160649   -1.14486790409415
C         1.09589820431910    4.69019984060816   -1.21102874960863
C         2.39084917696773    2.63276162327311   -0.37335843044931
C         3.57325386536506    2.54639583091243    0.57788375489657
C         4.82881889939800    2.68452124775163    0.90119126502086
C         1.12186018318802    2.44961593367579   -3.49869321311896
C         0.18204189714286    3.04939689921649   -4.17474735831965
C         3.29247624544856   -0.09931214008071    0.30264280815004
C         4.57208288429867   -0.59731070390835    0.91324247494704
O         2.22770985438008   -0.14106954262570    0.94133705978153
H         3.10064793242035   -2.00814361441563   -3.79264951626592
H         4.40102700210763   -0.75365233022230   -3.60437837903708
H         2.69038722183384   -0.30199147673708   -3.99795716365681
H         3.71789125825729   -1.75545545090653   -1.53831388106340
H         2.00374867606321   -1.29454728709866   -1.75230476264637
H         4.76282143101212    1.64925758491056   -1.06544557774027
H         1.30686888734583    1.07710370368710   -1.47910662894440
H         3.27676787389651    1.80906541538148   -3.38346768797212
H         2.93875378993825    4.30271894830895   -3.10055553036198
H         3.16864918558997    4.64087656074741   -0.68515325233581
H         0.28776591809475    3.97483757570479   -1.39557088333712
H         1.08037342176659    5.42155605043316   -2.02701801941646
H         0.89364034878096    5.16451626763364   -0.24373151513319
H         1.53176717758260    2.56597306080933    0.30256414774574
H         5.68634916045321    2.53641962143864    1.51677797064993
H        -0.59149078918090    3.61109439562197   -4.64581517787477
H         4.75864515234857   -0.18862789183472    1.90483103660889
H         5.33499295589360   -0.34147300190830    0.17101135061377
H         4.56922248201893   -1.68336260672846    1.04120125143401
