36
 energy: -50.519619125567 gnorm: 0.299303348109 xtb: 6.4.1 (79825abcba525fcdf90b791dcacef51065a7a4e7)
C         3.48810179857766   -0.63444838006245   -3.65977491509077
C         2.98401272433624   -0.76096062086085   -2.22962435503833
C         3.35292902049595    0.41107290443840   -1.24151543815324
O         4.73184797325511    0.71518283058581   -1.51206718199978
C         2.39986264353158    1.66487316742921   -1.37952156810704
C         2.73008480261114    2.54983235490228   -2.65760022458050
N         2.93586617578464    3.89581497104840   -2.11175141269483
C         2.20510824620596    4.05608239970439   -0.84585397571474
C         0.69420363502381    4.29347832134104   -0.88218796616362
C         2.41419379148300    2.66881465348195   -0.21521600161244
C         3.79502714479030    2.54868741253037    0.40869927643286
C         4.91452627376597    2.76466495259367    1.04125386558845
C         1.60935145899336    2.36850825931914   -3.66828501534320
C         0.64899668989112    2.86032221099323   -4.40032503875101
C         3.16537236337946   -0.24580143018525    0.16462449871240
C         4.32116456194510   -0.94430363743238    0.82376538079761
O         2.01918328336545   -0.27888628778349    0.64270134044306
H         3.22733603840450   -1.58881444647455   -4.14802444224355
H         4.56894318206991   -0.46124223674935   -3.66017919483244
H         2.91459234243587    0.18886296426314   -4.07778281352153
H         3.52289237908364   -1.66047044074157   -1.89433796471309
H         1.90526102017987   -0.95446423656062   -2.17758315389383
H         4.95157725218984    1.57031879094450   -1.10488382780824
H         1.40707965560177    1.19453301376991   -1.47156580307529
H         3.70020546753654    2.30659073214201   -3.08937387431544
H         2.65530176126483    4.60154377579665   -2.79012464173263
H         2.71385468308176    4.81610440967275   -0.24091599508126
H         0.18818900262668    3.42939270641808   -1.32511234204424
H         0.47421213924165    5.17291751852873   -1.49794104533655
H         0.36126600037422    4.53346481699916    0.13423087803935
H         1.63395789754599    2.39251763837030    0.50189334717583
H         5.93706928497998    2.75840213076193    1.34226181457004
H        -0.29163769903459    2.78510283536050   -4.89561363428351
H         4.06449075085431   -1.94666597732494    1.16208961070054
H         4.61869522050130   -0.43156960034039    1.74407568231640
H         5.17561423489282   -1.05953830923405    0.15106404692235
