36
 energy: -50.519478182520 gnorm: 0.306950644270 xtb: 6.4.1 (79825abcba525fcdf90b791dcacef51065a7a4e7)
C         3.45430670769357   -0.30461268795139   -3.83496746154909
C         3.09285223957885   -0.71094037698338   -2.41380939823075
C         3.44661003298300    0.40481552320027   -1.35736951281232
O         4.81587197859221    0.81980946893380   -1.49879197475110
C         2.43244276656893    1.61682326764259   -1.40093893807226
C         2.85400619841426    2.70741237257545   -2.47731440610521
N         2.85382415785824    4.02969657338809   -1.84207386726794
C         1.99809368281950    3.90394610368337   -0.65291396132551
C         0.49200407227424    4.07204148847100   -0.86255109845491
C         2.35889834373263    2.49820100871720   -0.14337152074331
C         3.70963886081437    2.44652198845794    0.55177655937258
C         4.82824041276050    2.49200803693506    1.22014131364407
C         1.84988095547763    2.66588595265963   -3.61767111273203
C         0.88798344911046    2.88201676426903   -4.47095035144503
C         3.17679566187183   -0.27583152317013    0.02386570625351
C         4.36898647894395   -0.88883640908570    0.70293398338908
O         2.02498723311524   -0.45352491754710    0.45417243869001
H         2.81956658817032   -0.90672958847031   -4.50709928590947
H         4.50118287113323   -0.54816017922228   -4.04221983046785
H         3.20475687042330    0.71841595158020   -4.10445316736236
H         3.63761842066962   -1.63339710036997   -2.16037388956343
H         2.01725823205538   -0.92675703460898   -2.39437043461881
H         4.91410691315155    1.49236243092433   -0.80355160920911
H         1.45567101861260    1.15452152829276   -1.61889329421857
H         3.84255843820010    2.51642026559481   -2.89326578412903
H         2.49926272821777    4.79689425846896   -2.41009998585745
H         2.36581100185318    4.70425056032235    0.00031118345751
H         0.24715046577548    3.56942581123299   -1.80398667774203
H         0.26650253617827    5.14320472649960   -0.91470265302204
H        -0.02251770142396    3.70699667289389    0.03386279928571
H         1.67024839860717    2.14707247963344    0.63240157719745
H         5.58572933233236    2.19960600266041    1.91075754885121
H         0.13063980915911    2.73893135481473   -5.20696594551594
H         5.31286624672940   -0.71548054009701    0.18901403069494
H         4.15118248281565   -1.95918207438501    0.77582651038310
H         4.37326650730888   -0.46582344354550    1.71136448767882
