36
 energy: -50.520511300630 gnorm: 0.314220445017 xtb: 6.4.1 (79825abcba525fcdf90b791dcacef51065a7a4e7)
C         3.11905003216435   -0.15992482287198   -3.85360871578533
C         3.15819210172320   -0.66403665911159   -2.41841502734401
C         3.43819014954034    0.41045858470788   -1.29895885288832
O         4.77287878257267    0.87860518756529   -1.55691927452230
C         2.41601752020865    1.61216138828751   -1.40128091859627
C         2.88824503132525    2.67491924372557   -2.48443898725508
N         2.92370570803324    3.95983883601970   -1.77755125005771
C         2.06169982199687    3.87762060153746   -0.58911734991957
C         0.59383643280479    4.16484531418512   -0.91065856870084
C         2.35011119326202    2.44459469380189   -0.11038104711692
C         3.69357872527030    2.55029613022939    0.59270056138563
C         4.80718829736448    2.43870748604844    1.26163372019316
C         1.82560734052251    2.66021498894215   -3.57117276327302
C         1.02892629726345    2.82225985092947   -4.59052823672981
C         3.20972024667037   -0.40905774578193    0.01256140713253
C         4.36413343985150   -0.79044607315696    0.89579453387973
O         2.03951331493124   -0.79878270529139    0.16132857582421
H         3.18682361265963   -1.03982333108614   -4.51571620554508
H         3.93837505698878    0.53249348580722   -4.07151240298336
H         2.15719166950642    0.29298450206839   -4.07985393704728
H         3.89219519585429   -1.45665552346074   -2.20646938346309
H         2.15503136448624   -1.04979821399975   -2.19770312652473
H         4.91865071371530    1.59084844339412   -0.91132122444392
H         1.42241437106938    1.18842175553871   -1.62152522596663
H         3.85048547376034    2.44258694351230   -2.93924015042640
H         2.71593141984586    4.71697096991737   -2.42604222726567
H         2.37804268184801    4.61982351054243    0.15349182546703
H         0.09169932106619    3.27623636489005   -1.30702861680425
H         0.46145064003118    4.99585930628077   -1.61269215610236
H         0.06354390804750    4.43814070438938    0.00893249275257
H         1.66940620375542    2.02830675581682    0.63975158876988
H         5.67872942736382    2.29127180744545    1.85738365238611
H         0.29816782729104    2.63897114084540   -5.34429152062919
H         5.29393723909096   -0.70098707397297    0.33674447265274
H         4.26211080499332   -1.84173029064895    1.18351768863743
H         4.39655553322681   -0.21073934547736    1.82249797838438
