36
 energy: -50.518198895968 gnorm: 0.307102226420 xtb: 6.4.1 (79825abcba525fcdf90b791dcacef51065a7a4e7)
C         3.57121899185718   -0.25142678630884   -3.78389723433442
C         3.07399933302643   -0.65887298267014   -2.40469384598935
C         3.38162101561836    0.39818042147979   -1.27592102777100
O         4.76620658318902    0.73914084229820   -1.45968011387183
C         2.40234918544944    1.63770144574388   -1.33925084392626
C         2.80044262357479    2.69709016968094   -2.45500244936960
N         2.86545091640110    3.97661207170154   -1.74046502743405
C         1.89426642685746    3.88891444381054   -0.63987475410386
C         0.45126124346817    4.13065345128034   -1.08687366133380
C         2.29784932305397    2.51412212645146   -0.08041092628452
C         3.65154249738451    2.64341621501574    0.59870573236796
C         4.91560167704448    2.58830051047222    0.91361299045082
C         1.77202652826923    2.76080536223547   -3.57245763311935
C         0.81933365625209    2.64325436919935   -4.45484238970934
C         3.27215085196290   -0.28459592359606    0.12612166089428
C         4.34545875715349   -1.20801457983580    0.62964504843751
O         2.18270447636689   -0.20607034217270    0.71801846868353
H         3.41106411071656   -1.14388642129915   -4.41244093832921
H         4.64820134798439   -0.05574246696921   -3.77795740846590
H         3.08615250873990    0.66873002595046   -4.09934488019246
H         3.49481525292913   -1.63198366390937   -2.10822170968301
H         1.98778625612711   -0.81246940574049   -2.38453259892933
H         5.06727375353097    1.34345619804712   -0.76003858906143
H         1.45450909520064    1.16134042392479   -1.63923320420130
H         3.77722288435796    2.44544138109991   -2.86646603759706
H         2.74852177831879    4.78964008388299   -2.34235604992206
H         2.18625277813348    4.64239966465283    0.10134744955623
H         0.15880368854958    3.43413898811247   -1.87947251485154
H         0.32313709579762    5.11418500992766   -1.55293298195159
H        -0.18304951192601    4.08716330148044   -0.19395332474944
H         1.61358959904230    2.08106692272808    0.65688531175912
H         5.84315694431603    2.79578003807533    1.39614040277530
H         0.03876644411176    2.59844073070398   -5.17904425718315
H         5.26401159033848   -0.74078615507095    0.27888402629284
H         4.25528821290078   -2.18904873460239    0.15232648973837
H         4.23011566594803   -1.30673167275458    1.71262301503344
