36
 energy: -50.514697687215 gnorm: 0.311818891866 xtb: 6.4.1 (79825abcba525fcdf90b791dcacef51065a7a4e7)
C         3.29790922693374   -0.40522465910398   -3.68813879281226
C         2.84596354126374   -0.78897236942407   -2.28673786547574
C         3.30460478750758    0.28369069838722   -1.22600076831428
O         4.69211275776760    0.57367472137665   -1.46647836014135
C         2.40394430831739    1.57326460150352   -1.38476525395630
C         2.71894865555377    2.51119380963834   -2.62844749494268
N         2.92354211272910    3.88051210492557   -2.14360215321605
C         2.30353255249675    3.96614990469994   -0.81302203911987
C         0.82464624536674    4.34809121119009   -0.89977378846486
C         2.46681964608297    2.56123498003266   -0.20846912737975
C         3.89409446480759    2.61421280221261    0.31160928495047
C         5.04170160164259    2.87281833137198    0.87390011429882
C         1.60343348806265    2.47973664185934   -3.66045606846194
C         0.65183653502142    2.66569676153313   -4.53219390882938
C         3.12809461231830   -0.23252318948016    0.23901059230435
C         4.34701512549079   -0.73943484924813    0.95699457555195
O         2.00168762663726   -0.40426063853983    0.73410152127910
H         3.37753693698041   -1.25024456995290   -4.39298043866631
H         4.34053912963055   -0.08153069570514   -3.60836578040845
H         2.77063905116058    0.44733552031414   -4.10839177281174
H         3.20760855058635   -1.79842606208783   -2.03745432760485
H         1.75254483185996   -0.87393294830844   -2.25395981124112
H         4.92878932747964    1.31744859305785   -0.88671859822207
H         1.38059435827315    1.16380588444893   -1.40497663419896
H         3.63225462803339    2.23266734306914   -3.15287506016944
H         2.51408598926716    4.52985687022741   -2.81267377253677
H         2.78161514443987    4.76852898992608   -0.23853862087611
H         0.34709156863954    3.51575389678029   -1.42706203139670
H         0.61722650614123    5.32440785274700   -1.35226056352022
H         0.43737835546491    4.31588998393468    0.12518226894456
H         1.86428081051908    2.35691375732223    0.68290829293763
H         5.94777502155053    2.70435840975729    1.40952259862514
H        -0.16290456534943    2.43367616947695   -5.17881988547470
H         5.19745869801962   -0.06175436439952    0.90630060400887
H         4.63689674569002   -1.71761449889525    0.56010043271365
H         4.10043627643193   -0.88670740944749    2.01217229855838
