36
 energy: -50.520543464715 gnorm: 0.297320161549 xtb: 6.4.1 (79825abcba525fcdf90b791dcacef51065a7a4e7)
C         3.24685566266963   -0.66447437682362   -3.65526372386905
C         2.95865327616453   -0.79585129565540   -2.16693538025899
C         3.34042179030272    0.40959293887280   -1.22498099589070
O         4.71131547132580    0.76014064575938   -1.47966788243002
C         2.37785728920992    1.65264571647702   -1.39137122287876
C         2.82805063270851    2.57684705795037   -2.60333752940731
N         2.93896356967392    3.93029864530840   -2.04851033451071
C         2.16888008239597    4.03598142513965   -0.80031495728699
C         0.67290982774582    4.27785047557234   -1.01027231891499
C         2.42890416673847    2.63847114361600   -0.21270510934955
C         3.83566114398815    2.64978696651617    0.36288882308956
C         4.75345874241941    2.88655779981265    1.25823070462263
C         1.81597660964433    2.46746318833400   -3.73211860530158
C         0.72266687775988    2.64384863542461   -4.42030957513633
C         3.19209291860689   -0.27713264405578    0.17154951330065
C         4.43241311940496   -1.03936592668045    0.54415372152743
O         2.14551157356641   -0.22205196020897    0.83865902038025
H         2.73470694585701   -1.46496571234761   -4.21572628583940
H         4.32500501968500   -0.62330711230957   -3.83997389760511
H         2.84079850829026    0.28522776762779   -3.99389138319935
H         3.54082065146139   -1.65008779873862   -1.78840228154871
H         1.88423351122522   -0.94869676890070   -2.00532593248099
H         4.88913331800171    1.51293544014164   -0.89058591347234
H         1.34885399297027    1.30192727744674   -1.57428883748441
H         3.82258166273549    2.29477999380400   -2.94695835517993
H         2.69388989705329    4.66655885483921   -2.70791883533157
H         2.53617059970472    4.80577680998758   -0.11117121360547
H         0.24311518703959    3.42358671603435   -1.54355156935426
H         0.64453667104442    5.25494665202318   -1.50569077225758
H         0.20917879959704    4.39205416635238   -0.02363190490193
H         1.70071221159550    2.42606883978596    0.57721618929933
H         5.77546824628009    2.81336928275271    1.55213418320659
H        -0.13084506018419    2.55302686838440   -5.05199823170288
H         5.06619528749487   -1.25347153493399   -0.31465588954165
H         4.05971264695419   -1.89873773398910    1.11069251447987
H         4.95487887006975   -0.35573360352993    1.21911057789183
