36
 energy: -50.515800666872 gnorm: 0.306720358633 xtb: 6.4.1 (79825abcba525fcdf90b791dcacef51065a7a4e7)
C         3.32626257699900   -0.17725485644354   -3.95508111852144
C         3.19854480247138   -0.64780764970445   -2.51365474071044
C         3.43645010569245    0.34667492670381   -1.31343537166476
O         4.78639857894510    0.83909505091006   -1.36097621928016
C         2.38385893479333    1.52053401305959   -1.42963785584574
C         2.78321875433996    2.54454185891286   -2.57750726345749
N         2.95942013696962    3.82218931875856   -1.87855365811405
C         2.14726793562401    3.88631625029474   -0.65442716915586
C         0.70448135780190    4.36938339198329   -0.81418558205422
C         2.23632707136777    2.42176332799488   -0.19281473539349
C         3.46416838306110    2.34468555131005    0.69985895789816
C         4.52212768207760    2.57781208383037    1.42540982348645
C         1.74072321844328    2.45232810812300   -3.67982531026601
C         0.70054932577737    2.73272377894237   -4.41430565063817
C         3.25055183444999   -0.45469484096728    0.01590253481383
C         4.49611929986532   -0.69749294636704    0.82078664989448
O         2.11538277538422   -0.73396161690474    0.43638174465277
H         3.17271052269941   -1.05238354651342   -4.60912432251457
H         4.24865413752782    0.37269899124323   -4.16712639676691
H         2.56792601384561    0.51324924705404   -4.31510195635488
H         4.00912434756674   -1.36527798773008   -2.31334676835165
H         2.22563146755875   -1.14230192074754   -2.40064041681562
H         4.80258035424053    1.72328874934389   -0.95690146449499
H         1.36248551761501    1.15687697851965   -1.62928749006118
H         3.73035147005563    2.27494318062697   -3.04332402322110
H         2.90877215927862    4.62304497924205   -2.50547053082138
H         2.71485060331320    4.52003030828602    0.03742741447303
H         0.23744364151345    3.67990274200576   -1.52507865897235
H         0.65420523418683    5.38334471410512   -1.22687936864393
H         0.12705871454912    4.42620259084001    0.11581598809986
H         1.35663831762858    2.11736530568659    0.38411113270403
H         5.37514586131319    2.76339341215074    2.03709501878660
H         0.15078106337052    2.80459926633542   -5.32444331443166
H         5.22908150496053   -1.17970556645682    0.17633929417049
H         4.21624241788108   -1.43246584026493    1.58228223325389
H         4.95150442345385    0.18754895190926    1.27379392382299
