36
 energy: -50.520929405170 gnorm: 0.307671368917 xtb: 6.4.1 (79825abcba525fcdf90b791dcacef51065a7a4e7)
C         3.02053146725024   -0.55835260584719   -3.63761517950714
C         3.02482638586850   -0.85362562847945   -2.14488708239249
C         3.39273869140112    0.40343136500159   -1.26706630653067
O         4.74910274244951    0.77703734195440   -1.56336636630897
C         2.42681077641088    1.64303708953549   -1.43956915129677
C         2.82205953615876    2.66403163712305   -2.59153834383009
N         2.94310825209790    3.92372724903331   -1.84959477520999
C         2.02210935727061    3.93373425680952   -0.70336180557598
C         0.56862389152940    4.24059270773085   -1.06904967454271
C         2.27727190278429    2.51040261599818   -0.17900320038032
C         3.60490780608738    2.51811462218417    0.56108126063088
C         4.76423364621198    2.69021004962752    1.13239261418950
C         1.74798637789625    2.63152432932716   -3.66658042538655
C         0.95886749723881    2.80903992663106   -4.68923598274390
C         3.34354155619459   -0.22037047278292    0.16553337291979
C         4.54228079274370   -0.94965124197837    0.70349383758724
O         2.28766753198581   -0.24460785158635    0.81970772638737
H         2.85126061897019   -1.45894946253518   -4.25200402373136
H         4.03024417665914   -0.20983881882792   -3.87685776921976
H         2.29911759394612    0.20547632297828   -3.91620566499964
H         3.87281893302349   -1.49207060805830   -1.85295760442244
H         2.07307840351909   -1.29910606944199   -1.82932388038612
H         4.88134097679078    1.62340231788739   -1.10345753534632
H         1.43455824542719    1.20031620888552   -1.62596443255441
H         3.77771919804622    2.46850108238116   -3.07652439818516
H         2.96065573337977    4.72276534534278   -2.48061773574993
H         2.45528552979886    4.67130832002573   -0.01725010887916
H         0.29114556178268    3.52271751239657   -1.84785500494992
H         0.56066075496363    5.25716334358564   -1.47829550083368
H        -0.13189740689707    4.13819481080016   -0.23219076553287
H         1.40495662401315    2.21563341943690    0.41389736614631
H         5.76832991036872    2.67098150624889    1.48968825051100
H         0.25589286955474    2.90381821437615   -5.48460100551084
H         4.80407429402287   -0.50067971744338    1.66003120180351
H         5.36288830232693   -1.10658392196019   -0.00387253685247
H         4.22748702812295   -1.95183692767019    1.00749894280020
