36
 energy: -50.518835040167 gnorm: 0.301479637765 xtb: 6.4.1 (79825abcba525fcdf90b791dcacef51065a7a4e7)
C         3.44333450665186   -0.50403560504262   -3.66948431529307
C         3.04003752819591   -0.77370082836647   -2.22723815622902
C         3.39241969642329    0.41031233269460   -1.24741128855501
O         4.78539621622995    0.69264712093103   -1.46421084756033
C         2.42294240928936    1.65337086984379   -1.36705903405415
C         2.70688653163049    2.52638488958690   -2.66432798362505
N         2.83893591896689    3.88477966166344   -2.12646862344832
C         2.20851195278249    4.02407277979963   -0.80535084836330
C         0.69770119993909    4.26008975388662   -0.85285436330911
C         2.55010753126941    2.65033412233802   -0.20361386503417
C         4.00199092330912    2.68851390423550    0.24469242534679
C         5.03234150400759    2.49381251488665    1.01962402558889
C         1.55684287704931    2.43932056850249   -3.65439098340625
C         0.47065893225754    2.62130088893679   -4.35233968395356
C         3.07770235855665   -0.18959334014365    0.16147377171282
C         4.26822241417520   -0.77169605204259    0.87002588004542
O         1.91400779039187   -0.20996370579720    0.59598669735865
H         3.13297213591389   -1.38198142560796   -4.26116607645652
H         4.53162781998438   -0.41498005279278   -3.74633092066477
H         2.93873243419002    0.34476266614521   -4.12380084402596
H         3.59273747913073   -1.65975177721950   -1.87886674701443
H         1.97380271456243   -1.01822040817230   -2.31215381718536
H         5.11811413707769    1.53116105839969   -1.10154032891725
H         1.39205954702917    1.26367260514261   -1.34011746508927
H         3.62495946486283    2.20206130878610   -3.15288234590602
H         2.40736841798635    4.56653726896433   -2.74768986531423
H         2.80606787538243    4.79404591145601   -0.30288228966463
H         0.34614590567777    3.65614118678593   -1.69578482690842
H         0.48080523755074    5.31921707542970   -1.03220561783756
H         0.25124254961954    3.94109833070738    0.09607524367070
H         1.95007943802366    2.33580845412755    0.65684752784169
H         6.00357199741599    2.52632030357824    1.45768087630137
H        -0.42769302401905    2.35408883805386   -4.85961008212071
H         4.85593260780268    0.05230483749705    1.27089276401304
H         4.86076260301241   -1.27237176581217    0.09761944606651
H         3.99484138118860   -1.42262538774444    1.70515711126449
