36
 energy: -50.517818523171 gnorm: 0.304708979293 xtb: 6.4.1 (79825abcba525fcdf90b791dcacef51065a7a4e7)
C         3.23397778248591   -0.60433622442525   -3.69219697950437
C         2.93080982613021   -0.75457953564599   -2.20863440564297
C         3.40892045993335    0.41606298390268   -1.26676000610416
O         4.75276988794036    0.78344132670890   -1.62200702891569
C         2.39435255970985    1.61931896813750   -1.41583502237500
C         2.78876443944949    2.54733193201623   -2.64421433245113
N         2.90943963381603    3.90425665843823   -2.10000950259279
C         2.14984145116948    3.94115436051322   -0.84150313476080
C         0.63995700245623    4.17585663471280   -0.91682581194213
C         2.47974794629300    2.57563204948020   -0.21505016969150
C         3.79335236421781    2.44952755892609    0.53923268730289
C         4.86021654702432    2.74793982692890    1.22683781392779
C         1.62784960885858    2.40851053788636   -3.61550770203678
C         0.86054869025471    2.72809233189303   -4.62007807301926
C         3.28147765616471   -0.15107276766968    0.18444856061741
C         4.45775816383910   -0.82315571269851    0.83475336299719
O         2.13728180830027   -0.16970034619595    0.66805001181973
H         2.67070044880256   -1.37955257294571   -4.23896862270314
H         4.31479248640978   -0.54879134961428   -3.85643148021794
H         2.82212123717853    0.31863936352124   -4.09216637559306
H         3.27662689295282   -1.74941020419040   -1.88824611559331
H         1.84111178639839   -0.79066389006024   -2.08569829678482
H         5.01003391761268    1.48409168635107   -0.99891710985691
H         1.35467468893533    1.26684259950463   -1.51653455012479
H         3.65810535968063    2.13071712548607   -3.15156781325565
H         2.65584465387197    4.64879066690796   -2.74678494119250
H         2.60337098364066    4.72966598133867   -0.22915785918365
H         0.13740899926479    3.32642993326588   -1.39095294801442
H         0.41639036061379    5.09581832918475   -1.46877675776865
H         0.27426516837025    4.26816142622092    0.11239601052932
H         1.70758161485401    2.44243023546838    0.55004481884463
H         5.70175802927992    2.72610939626152    1.88072661954841
H         0.05733641779740    2.95072378272922   -5.28419183289869
H         4.08758121251398   -1.75616324155219    1.25610947521453
H         4.84859536456761   -0.30352745630187    1.71544882364449
H         5.27266350098212   -0.97814720192892    0.12215439386899
