36
 energy: -50.516943591876 gnorm: 0.300043687448 xtb: 6.4.1 (79825abcba525fcdf90b791dcacef51065a7a4e7)
C         2.71930495417168   -0.58913131371411   -3.51449679716101
C         2.85700409345613   -0.92088687013091   -2.03584234696967
C         3.32744867191877    0.34334432740971   -1.21943407707644
O         4.65618274952417    0.70208907691904   -1.63520632512901
C         2.39818060250296    1.61258164399942   -1.37721190286604
C         2.83818285525178    2.56349411000053   -2.57213783714388
N         2.99666171819707    3.87890259982278   -1.94241483378887
C         2.07437819705554    3.92649126250058   -0.79816068434550
C         0.61159909772663    4.21632828192113   -1.13989381737723
C         2.37494850784860    2.55746770827985   -0.16462707961246
C         3.71232822850898    2.62459878806808    0.55461591072819
C         4.96110134095623    2.53022388195637    0.91753325210771
C         1.84599819417348    2.58682202675607   -3.72341138600946
C         1.07173251451537    2.96388826431740   -4.70237947783785
C         3.34257158687349   -0.22930550978749    0.23512235796013
C         4.69891685810110   -0.63973614386331    0.73522422894343
O         2.26982974841958   -0.41580067980730    0.83332466424336
H         2.14071578465137   -1.36052528670682   -4.05058157087407
H         3.71089780874501   -0.49430433840424   -3.96833607186079
H         2.17196031363992    0.34710412453283   -3.58772466104234
H         3.68149902549236   -1.62841069480557   -1.85823514763886
H         1.95860669062564   -1.28879921434271   -1.52458918052740
H         4.76178421012565    1.50108491495444   -1.09133984905390
H         1.36911579524487    1.22746010268030   -1.46675010258726
H         3.81780935975694    2.29070534961551   -2.96283884825533
H         2.72377716051151    4.64763728635986   -2.55195628180331
H         2.51060814554193    4.72181217415831   -0.18206455564909
H         0.04746262062500    3.36140925408540   -1.52685667154549
H         0.48222854589349    5.07865375208371   -1.80368554398264
H         0.12427458518949    4.50680689401060   -0.20197844301892
H         1.58631394655611    2.30210458068733    0.55105379578638
H         5.99000760644875    2.59927307649289    1.18739121895430
H         0.45022948435126    2.79416019919669   -5.55131301781496
H         4.77217243975968   -0.16443446052976    1.71184950705737
H         5.41812717439295   -0.24721586083279    0.00923793590221
H         4.76594578054752   -1.72423087100316    0.85879072469621
