36
 energy: -50.509434757661 gnorm: 0.294800521474 xtb: 6.4.1 (79825abcba525fcdf90b791dcacef51065a7a4e7)
C         3.22605257960156   -0.21140371347980   -3.91399997756873
C         3.04758812831040   -0.71173430542933   -2.48807518462398
C         3.41113692033244    0.39128872408892   -1.42163553209239
O         4.74986396498586    0.89838029540614   -1.55492707170995
C         2.47728742656111    1.66092420430849   -1.54551945864582
C         2.93918475486150    2.87935059284683   -2.45533949511321
N         2.43632556043152    4.09391999838759   -1.80424817559497
C         1.90958990333400    3.83187511469838   -0.45663133206939
C         0.39756760449565    3.98722975384318   -0.28295565995011
C         2.28933320312161    2.36504705463250   -0.19178551083953
C         3.57092897088784    2.30443048281952    0.62322339923498
C         4.68389853199574    2.64857422702505    1.20881179647822
C         2.40917996763473    2.77439969228243   -3.87607369088763
C         1.47558336005215    2.63069732245804   -4.77484610853171
C         3.17992839931684   -0.25392891797636   -0.01659896365642
C         4.38514917436977   -0.77773091284666    0.71230571110468
O         2.06073053734294   -0.50347056390616    0.46144560080240
H         3.34604219705875   -1.04455242317297   -4.62720870612085
H         4.16202920218074    0.35594195989584   -3.93089021930752
H         2.34051522951671    0.38225210580278   -4.12585285123685
H         3.75126862373470   -1.55753779389865   -2.45097558792902
H         2.02795409402460   -1.06842597804942   -2.29578720925154
H         5.41266415911318    0.20030797434838   -1.41807792485839
H         1.48807796352666    1.32682500475027   -1.89928836360062
H         4.02186750113427    2.99037830783468   -2.50224369403358
H         1.66901265791431    4.44779439654713   -2.37254704132972
H         2.42058777277554    4.51847097291357    0.22884198224751
H        -0.13418371732421    3.31884101575392   -0.96806425694930
H         0.14722492881376    5.01243689035632   -0.57832033130491
H         0.15981174791881    3.79542750717184    0.76977047096983
H         1.56938860493243    1.78167150671366    0.39191533306136
H         5.52493007814700    2.71767170862384    1.86006497634150
H         1.22954212288673    2.83630234625077   -5.79118861722351
H         5.11156740808896    0.03021809159009    0.78020236674882
H         4.86891852121358   -1.55992751351109    0.11856549694438
H         4.08242168156767   -1.11963918217430    1.70595814892284
