36
 energy: -50.517490169510 gnorm: 0.306969006677 xtb: 6.4.1 (79825abcba525fcdf90b791dcacef51065a7a4e7)
C         3.81367550291537   -0.41174308869555   -3.80388662318710
C         3.05548091494988   -0.62735785671609   -2.50231334726125
C         3.41720430393942    0.38957855009163   -1.35291456743097
O         4.76319115689575    0.85212231360821   -1.55655937623406
C         2.35950442285834    1.56455709644972   -1.36254158305771
C         2.73848167261713    2.60066223777167   -2.50645890530305
N         2.89930585118746    3.88606025063097   -1.81808865237350
C         2.03022637797415    3.91818876051124   -0.63239993072781
C         0.53108283600761    4.16449172100707   -0.81243662443232
C         2.33740157620902    2.49430867869112   -0.13829291770325
C         3.74997372855297    2.60399892966918    0.41217012660472
C         4.75096934907389    2.55123222517395    1.24600066837930
C         1.69525396329678    2.66039213579838   -3.61032193529459
C         0.60995017934846    2.63041955678201   -4.33230677523900
C         3.16544804450190   -0.28111419645773    0.03657487981625
C         4.35134915264099   -0.92313891456155    0.69965139288219
O         2.02231137598293   -0.29046859428497    0.52294153486815
H         3.49110818279740   -1.16415769300924   -4.54349703042274
H         4.89942508089824   -0.51031030650193   -3.70564722075147
H         3.57657836347415    0.58422017430184   -4.16902685658752
H         3.31278105064402   -1.61661689597926   -2.09354770658148
H         1.97242691543890   -0.56821902033110   -2.66770319583130
H         4.85217921631295    1.67182461226083   -1.04128661690999
H         1.33842669236517    1.17866093645146   -1.51679613714704
H         3.68746519443640    2.31689549551916   -2.95992970638651
H         2.75047472472099    4.64612374832989   -2.47923352539960
H         2.45402250598134    4.68049187669753    0.03220307313446
H         0.02253698477652    3.42479694555482   -1.43942108422944
H         0.39758811112607    5.20265807162215   -1.13701512099585
H         0.05226656357508    4.16696945938180    0.17360449571346
H         1.69836103933616    2.12901840865179    0.67259802233535
H         5.72245985111618    2.74808049554101    1.63804172779079
H        -0.04061076600781    2.45284487448577   -5.15753367802505
H         4.49240069786433   -0.49347992254176    1.68989005171243
H         5.18123405974886   -0.86461677905882   -0.01186666122975
H         4.20903180849151   -2.00569551801907    0.76053927801445
