36
 energy: -50.518750044541 gnorm: 0.301615035307 xtb: 6.4.1 (79825abcba525fcdf90b791dcacef51065a7a4e7)
C         2.65194480237343   -0.65691952239707   -3.50341229674363
C         2.77314880216740   -0.93662362474721   -2.01260145113941
C         3.29186378134962    0.31306808863554   -1.20307909508914
O         4.65317048022244    0.64575649742126   -1.52442172327819
C         2.43189035991413    1.62787244953933   -1.37952041673170
C         2.73383098634693    2.41923347064786   -2.72423751247554
N         3.02672200923393    3.81377633383596   -2.37576780554794
C         2.47204350957714    4.00989678249140   -1.02815597381169
C         1.00327390782729    4.43375086166972   -0.96837888958684
C         2.67891547962392    2.67907961941730   -0.28514689747718
C         4.06331360934451    2.69062350305803    0.34231632363634
C         5.10105128674101    2.94184636083415    1.09067283993800
C         1.57843809703761    2.23896533423048   -3.69530704477886
C         0.74651421324168    2.15678138544093   -4.69590349695620
C         3.15493212978579   -0.11375678429054    0.29457280188775
C         4.41773484706068   -0.62807422632453    0.92626460794032
O         2.06275671591131    0.04567600718348    0.86477938456641
H         2.55605300891559   -1.59192100644400   -4.08114749422479
H         3.52655668005466   -0.09652847018147   -3.84871587455032
H         1.73932513707616   -0.11501857155753   -3.73783493543467
H         3.52292867559023   -1.73683726861099   -1.91557347969749
H         1.79865570621409   -1.25153164197380   -1.61883334146295
H         4.87489435922098    1.48931044662849   -1.09478000083766
H         1.37190569949271    1.32522804683113   -1.39172448328070
H         3.51089689103704    1.88590456338484   -3.27055054669265
H         2.58789041218432    4.44569221242707   -3.04290266688328
H         3.04560051752324    4.80097219465620   -0.53052317089069
H         0.34957035321593    3.63928842671113   -1.34304922825599
H         0.75699869247467    5.37259171559047   -1.47718905063076
H         0.74525798615405    4.60441102509199    0.08321568382946
H         2.00433540210916    2.62364570854154    0.57579601765676
H         6.05319966331551    2.87000512513398    1.56447818979367
H        -0.21307074776800    1.97725588229611   -5.12337171805702
H         4.98243926970195    0.26524694407818    1.18734161435515
H         5.08587368815500   -1.18666203670199    0.26296837771871
H         4.12296152408798   -1.13092287911373    1.85154418136026
