36
 energy: -50.518667680958 gnorm: 0.307090599884 xtb: 6.4.1 (79825abcba525fcdf90b791dcacef51065a7a4e7)
C         3.41915451018965   -0.40049343305427   -3.79860209746444
C         3.12428326705573   -0.75451584013249   -2.34837423277743
C         3.49733606483417    0.40583364879744   -1.34810340473368
O         4.84824041812434    0.82262318019106   -1.60971855316402
C         2.44979826681382    1.58040426496881   -1.49791912775918
C         2.88435582512342    2.67591320497377   -2.56408251728410
N         2.98068288098614    3.91964885786226   -1.79219598001557
C         2.01355046979009    3.85658995962183   -0.68636254093156
C         0.52710714410683    4.06201712037473   -0.98434852190866
C         2.15919848080424    2.39577075378431   -0.22731274135012
C         3.33920807038089    2.24030297943120    0.71810182726937
C         4.51836182530570    2.26193319739627    1.27414000228971
C         1.78763904666475    2.77413864559717   -3.61192289678336
C         0.82920790778092    3.25273021374775   -4.35516221451264
C         3.33265857698753   -0.17669336136310    0.09322741576780
C         4.56365675116970   -0.73700351867542    0.74815006547098
O         2.17023516324371   -0.33672405553187    0.50134929659747
H         3.07362276306062   -1.27551940964266   -4.37491653012423
H         4.49401668449409   -0.19770912365456   -3.84065517579559
H         2.81759900975780    0.47320011795600   -4.03582736624886
H         3.66056459290466   -1.67659463259725   -2.07616255422749
H         2.06427120150172   -1.02914807177423   -2.27902919129708
H         4.90397914364187    1.67051561604527   -1.13716340573987
H         1.51046305262076    1.07197786688942   -1.77079641486185
H         3.84014749036141    2.51480817132823   -3.06131136563990
H         2.86653576847362    4.72158400220721   -2.40931042169992
H         2.37852296184944    4.56732934815173    0.06467071533284
H         0.28926824970775    3.41833217104155   -1.83756543934549
H         0.30995095392742    5.12441354204132   -1.14283651854008
H        -0.05554639443122    3.78371771496050   -0.09856494318030
H         1.32066960999759    2.04227060789773    0.38199907483473
H         5.43683432411307    2.11800469934384    1.79561106385272
H        -0.04901251180288    3.33617681488690   -4.95309812008074
H         4.44607758729809   -1.81757398844336    0.68800358614065
H         4.55445495736534   -0.64798619401688    1.83919680184775
H         5.47281151513119   -0.34055057226660    0.28754932934149
