36
 energy: -50.520313283875 gnorm: 0.312318364136 xtb: 6.4.1 (79825abcba525fcdf90b791dcacef51065a7a4e7)
C         3.72327399607888   -0.17018679710181   -3.84990556797201
C         3.17083367861289   -0.53529911561691   -2.47988934252736
C         3.44786405197415    0.47340669252331   -1.30010638802254
O         4.85048640820222    0.76409710920055   -1.42358986060921
C         2.46570791761560    1.71171517871279   -1.33695363272243
C         2.89585202147709    2.74062260956236   -2.46921244326735
N         2.74044874134962    4.02732818008789   -1.78204093033021
C         1.88180253875479    3.86085029435322   -0.60000838956827
C         0.36590977386901    3.91452119280785   -0.79925265724975
C         2.34369645860245    2.50959393706258   -0.02843768135727
C         3.67397668112904    2.68045994761995    0.68679714849392
C         4.81795057139681    2.98236054189639    1.23472929167208
C         1.90340795183614    2.64948395800385   -3.61688568739301
C         0.93518998956650    2.61634109922531   -4.48952554478037
C         3.10534809891665   -0.42121023329798   -0.06469783434922
C         4.20865145058306   -1.29465232197492    0.46260501292336
O         1.98023882645428   -0.42561178870411    0.46209551483026
H         3.41182735101335   -0.94066939791221   -4.57554908916574
H         4.81357677873468   -0.13272553353454   -3.76015521848528
H         3.38994065771966    0.82829383692383   -4.12084942911723
H         3.58911721331044   -1.51903765094233   -2.21678567707402
H         2.10050750452751   -0.77399219725144   -2.51573164798464
H         5.11551729654209    1.45324112688993   -0.79099528428579
H         1.48804235207552    1.28705218707981   -1.61827451586712
H         3.92555844948080    2.65560821000404   -2.81447506695490
H         2.47037917875037    4.85764128271146   -2.30606607296692
H         2.11597700298775    4.65433238660991    0.11968240671102
H         0.01959364316870    3.03294551543646   -1.34858518187852
H         0.09669584647579    4.80234934692282   -1.38255913093625
H        -0.09185573290866    3.95654716578796    0.19585176505980
H         1.63721138582343    2.05047601437628    0.67116468223747
H         5.80664430768373    3.08494948185543    1.61969604616432
H         0.13868571428857    2.45700481845967   -5.17942021960052
H         5.16577612470852   -0.77669528212621    0.48921060095772
H         4.39568449245902   -2.07137995505974   -0.28579633134570
H         3.85537425514485   -1.68010932137485    1.42307806907033
