36
 energy: -50.511632998331 gnorm: 0.310466058101 xtb: 6.4.1 (79825abcba525fcdf90b791dcacef51065a7a4e7)
C         2.97769086326735   -0.51809847340364   -3.92707482696419
C         2.93498628574916   -0.80226681175849   -2.43279692655114
C         3.37886050399601    0.36545160988189   -1.47075200685237
O         4.74068050217495    0.77551786373589   -1.68144268461997
C         2.43711404203527    1.63464064017816   -1.42989671019267
C         3.02987825016311    2.85186162673928   -2.26217560798268
N         2.83656489431850    4.08227324306638   -1.48713799732358
C         1.88892723480194    3.77653022240922   -0.40515222879501
C         0.42658768096111    3.90083643120941   -0.83714844812390
C         2.25081895739512    2.32040177174839   -0.06654159694348
C         3.43531720475111    2.42864732743699    0.87984542199201
C         4.53123046024588    2.86581054691040    1.43474394844319
C         2.36037083830581    2.91891472586401   -3.62513895452198
C         1.59531117354162    2.91648000577138   -4.68094319066935
C         3.27351552029284   -0.34451580748016   -0.08196128217896
C         4.58324901458633   -0.56129486954304    0.62219260373533
O         2.13906350205396   -0.57909909404681    0.36680458731147
H         2.30493992211228   -1.23352943892208   -4.42983289599576
H         3.94218878220020   -0.64212467546152   -4.42964809609465
H         2.58204997484702    0.48015677726339   -4.09571648814094
H         3.66617785719888   -1.60122458970643   -2.23543553065082
H         1.92278084248303   -1.11072689227048   -2.14271124891540
H         4.93821703536008    0.73724999073263   -2.63267958591049
H         1.44476615595681    1.39869933313512   -1.84809216989779
H         4.09435438363068    2.68988186298160   -2.42765126968308
H         2.53374337663576    4.85626380040037   -2.07552351764390
H         2.02812428108389    4.46395112232219    0.43774933584372
H         0.27824326846023    3.25154508981563   -1.70622350469298
H         0.22696027607404    4.96653034972831   -0.99654351725983
H        -0.22537480718159    3.45318908001677   -0.07813262513555
H         1.53791444561024    1.73813871855487    0.52683081100779
H         5.31162921915724    3.02768389726060    2.14256738724636
H         1.01704915894381    2.89331589417423   -5.57583885242412
H         5.19189346280263    0.33277822803693    0.49866029020729
H         5.18057905555226   -1.40695967431759    0.26660913371866
H         4.44176196287273   -0.79941244610541    1.68010176948430
