36
 energy: -50.519055435807 gnorm: 0.310620641652 xtb: 6.4.1 (79825abcba525fcdf90b791dcacef51065a7a4e7)
C         2.89810834569856   -0.45154666403913   -3.58964849537771
C         3.02754747801229   -0.81277065839795   -2.11716606208477
C         3.36558773384861    0.40627028058805   -1.17600239449739
O         4.71677496189180    0.72742997388179   -1.54781972661475
C         2.37607685700637    1.63147679001091   -1.31432656751072
C         2.76264389864098    2.48586701148603   -2.59739623445151
N         3.00539338742833    3.84714271579881   -2.10753171758566
C         2.22696977457702    4.07054799771274   -0.88020295636639
C         0.79058699716776    4.49213938588314   -1.19575794090911
C         2.30665789036583    2.69172575543067   -0.20312699625453
C         3.57367919903554    2.61016598723530    0.63258024167584
C         4.78451975233879    2.46973861128397    1.09539253636925
C         1.69472799463220    2.42146786381569   -3.67712478376784
C         0.71542221113204    2.48406707010218   -4.53566210464949
C         3.34166890052903   -0.20302294229632    0.26346994189725
C         4.54403278766646   -0.96810185579430    0.74012811192908
O         2.35951030772229   -0.07364965117123    1.01315557359432
H         2.57155685829970   -1.34389514818439   -4.15025466893110
H         3.84427972077303   -0.09196927321707   -4.00640077138270
H         2.07556947357632    0.23715608892218   -3.76458731440406
H         3.87487853665973   -1.49223438569588   -1.93748498926142
H         2.11673525674821   -1.35529563021108   -1.83442070982608
H         4.89079496598783    1.63868591042621   -1.25684479447315
H         1.44804958901445    1.07506111969024   -1.52522243043619
H         3.67408075168703    2.15169461880749   -3.09170459207641
H         2.82578612536338    4.56163118162271   -2.81053046356025
H         2.78350723693528    4.76170594987525   -0.23601890102518
H         0.38754975344023    3.77896718647065   -1.92227232996013
H         0.80774501087338    5.42046964345467   -1.77788331421095
H         0.18796956476117    4.63846741730998   -0.29188372888111
H         1.41703113414819    2.49851924853128    0.40563354280164
H         5.73977764875175    2.34488084168395    1.55160751481525
H         0.02726980141737    2.48800453249739   -5.34941423759577
H         4.51136082357306   -0.96492534830018    1.82824458201948
H         5.51423708031005   -0.55735201525325    0.44284047253673
H         4.43125252733526   -2.02292817058464    0.47458635094968
