36
 energy: -50.513391415624 gnorm: 0.305886298655 xtb: 6.4.1 (79825abcba525fcdf90b791dcacef51065a7a4e7)
C         3.84417645971530   -0.30260133568701   -3.79628219210491
C         3.12338384772481   -0.57980035287841   -2.48515272739342
C         3.43039440495532    0.39705232198427   -1.28614296752825
O         4.80617065088032    0.81417794001928   -1.30470388295433
C         2.47286562460191    1.65406387758223   -1.33571021701619
C         2.74918066454028    2.63483857455133   -2.55530665768372
N         2.73252423399813    3.98996642162733   -1.99377556577498
C         2.05062474184283    4.00079095147113   -0.69105340285335
C         0.52243027115113    4.07128570220760   -0.67833042336317
C         2.57402142295813    2.65149128424749   -0.17011275907821
C         4.03255442447011    2.79021405896681    0.23465764181361
C         5.04096128868393    2.84577253778051    1.05932653353751
C         1.65315509113998    2.32712063128536   -3.56250226381585
C         0.58419648590999    2.43289017199729   -4.30154564058945
C         3.02558101895312   -0.36577659849805    0.01697217556969
C         4.09276111980266   -1.20449879470413    0.66187477615047
O         1.87583150257143   -0.29203043020861    0.48177216454331
H         3.54300887116301   -1.06601545096517   -4.53364095219590
H         4.91367747457484   -0.50323421699537   -3.67740136000201
H         3.65535593728458    0.68505901057341   -4.20902801304128
H         3.33960946486709   -1.62348369546638   -2.20965732929208
H         2.04722811739915   -0.47448971025462   -2.67131311740887
H         4.83314659579677    1.62317059703891   -0.76605749422493
H         1.44901574923307    1.24844391893076   -1.28557094874374
H         3.71711037028791    2.52724771036232   -3.04343098467560
H         2.39107226415291    4.66082127246534   -2.67957735238473
H         2.38368481386267    4.86765613226244   -0.10793926353420
H         0.07586631989943    3.29406916311987   -1.30713233877803
H         0.20159557745689    5.09650468070189   -0.89501581386488
H         0.08487459921454    3.86932283125184    0.30620209760376
H         1.97657963379131    2.32658042511646    0.68828700813335
H         5.98498372877316    2.93059594850008    1.54704146015936
H        -0.13590378842612    2.48409500699356   -5.08550701813619
H         3.59630951239279   -2.13932279377251    0.91626599211476
H         4.36069820097412   -0.70543173841559    1.59864237708887
H         4.87780527312010   -1.38307777355282   -0.07819656468853
