36
 energy: -50.522363614666 gnorm: 0.306766363465 xtb: 6.4.1 (79825abcba525fcdf90b791dcacef51065a7a4e7)
C         3.31236345334928   -0.61744858855369   -3.73287967884780
C         2.97694599187723   -0.74448492931709   -2.25409684753114
C         3.36447536390661    0.41518095697885   -1.25854821297316
O         4.74337274079559    0.64870187922188   -1.59202773437171
C         2.43206692391617    1.68457754392754   -1.39508816228309
C         2.68989463168073    2.54692773960622   -2.70488261534632
N         2.92694893341405    3.90859994192662   -2.21333386352790
C         2.33371049401027    4.03230477411260   -0.87357478205111
C         0.82884734913871    4.30469736941413   -0.91479277307469
C         2.60047716574862    2.66452529058376   -0.22246214770678
C         3.97172777062751    2.60166646677639    0.43031817355621
C         4.90005908956159    2.69952975149996    1.34063332298792
C         1.42354863063455    2.45828306893994   -3.54089416502708
C         0.40466651487088    2.36129967920932   -4.34868019162507
C         3.12175454356116   -0.18025164404188    0.16638602013945
C         4.32726901532453   -0.74074497605947    0.86696417993124
O         1.97763916469345   -0.27763192254247    0.64064183282503
H         3.12505313873374   -1.54966449375108   -4.29242352957413
H         4.36792019222772   -0.34211318888862   -3.82348330652384
H         2.73697043722659    0.18106229349228   -4.19416973367245
H         3.57414857467867   -1.59321964466481   -1.88677596938351
H         1.92784632705129   -1.03874033210491   -2.12502001508846
H         5.15763429278502    1.29528352048951   -0.99565847191348
H         1.43175044764539    1.22252764148159   -1.36063657218062
H         3.54752317200253    2.30071031316315   -3.32984608231313
H         2.67191002782353    4.66835522325494   -2.84157493283227
H         2.85628897412625    4.84427278970561   -0.35393449175414
H         0.28468508430871    3.38850982804651   -1.16651599761133
H         0.57511298536117    5.00691376887050   -1.71696009730768
H         0.51866890039558    4.66486630073356    0.07293994674831
H         1.90429356568242    2.41483360204212    0.58521128842032
H         5.85311235603421    2.90705862476909    1.77058735501037
H        -0.47072976566919    2.44063881857196   -4.95129817622426
H         4.00920458028655   -1.31607205661973    1.73466733384169
H         5.03447981976128    0.02333920311177    1.20522441996176
H         4.87980466747438   -1.31086010003446    0.11492464080372
