36
 energy: -50.513790046136 gnorm: 0.313852756443 xtb: 6.4.1 (79825abcba525fcdf90b791dcacef51065a7a4e7)
C         3.01436613812944   -0.32413073320629   -3.79145083341367
C         3.03258932934800   -0.68168469913184   -2.31251038812038
C         3.40537198051714    0.40557479896493   -1.23314903395586
O         4.75755540411163    0.84641567262481   -1.44376217885445
C         2.41723241618474    1.63479619407003   -1.34265370322424
C         2.87515684344821    2.62540862107606   -2.49793580014138
N         2.93938161986538    3.96308751530247   -1.89922347026459
C         2.03051463509549    3.95147894749832   -0.74336224978606
C         0.58413951087412    4.29460858938647   -1.10498463749987
C         2.30417590006789    2.56908088291456   -0.12690633539285
C         3.58293126665088    2.54818710627265    0.69452516102352
C         4.69425936780386    2.81217502062188    1.32326208105042
C         1.82224885501915    2.63987413497030   -3.59410225508780
C         0.87617119491721    2.60163233963549   -4.49049471101481
C         3.35342554471689   -0.39935393335970    0.10598584634314
C         4.61482075414209   -1.11840059328354    0.49338962352063
O         2.25605716211061   -0.54330080492182    0.67031147625726
H         2.66428466934205   -1.26636282456345   -4.24625037660576
H         4.05286076133528   -0.14651269718803   -4.08843463771858
H         2.31333175042744    0.48714898822509   -3.96994807947260
H         3.69766942288496   -1.52638970290306   -2.07572337930118
H         2.07116045197130   -1.04296695067438   -1.92652226187175
H         4.96813098138909    1.41207181046542   -0.68151037408548
H         1.42537133588812    1.21515626803136   -1.57807669807201
H         3.84162074468762    2.41934219721924   -2.95642595945436
H         2.88007028685355    4.74992937254995   -2.54290182532343
H         2.44690282073079    4.73296147405368   -0.09659158816182
H         0.03816859482709    3.35488930339220   -1.23810180459145
H         0.45584186375655    4.83110179516126   -2.05191449785895
H         0.11870313008811    4.89891640003030   -0.31775576805995
H         1.51805972606801    2.30297341781159    0.58762993243279
H         5.59234251739937    2.75222392524242    1.89430650008146
H         0.16125173539609    2.82603664103679   -5.24831702439768
H         4.85480694328298   -1.74441945396121   -0.36427115704889
H         4.40887135276201   -1.68273417850661    1.40854217534605
H         5.50375974286786   -0.50440018930355    0.66274527849337
