36
 energy: -50.514343251931 gnorm: 0.294914071548 xtb: 6.4.1 (79825abcba525fcdf90b791dcacef51065a7a4e7)
C         3.71587788830894   -0.35680297774261   -3.68800881579760
C         3.15203860899475   -0.66777275603001   -2.30930477220332
C         3.46137403611879    0.50117100934819   -1.29737437396418
O         4.79807413248256    0.93592439041921   -1.59956786212333
C         2.40538914416586    1.66661477377422   -1.45872195515735
C         2.86853289929408    2.74624366766268   -2.52904143187225
N         2.78212136382778    4.04062861403061   -1.84415696484499
C         1.99325707248848    3.92726930147649   -0.60842564380259
C         0.50863916739580    4.27209741902524   -0.74076214351236
C         2.24840990261077    2.47759050384281   -0.16203879684424
C         3.51348627490823    2.40149423435690    0.67712310501624
C         4.77044006620993    2.18184684231524    0.94521282915797
C         1.96603808660844    2.60177746092275   -3.74355284846852
C         0.85977435376160    2.64401363363951   -4.43234996030477
C         3.17128075756360   -0.30047547140065    0.01300713812815
C         4.30271083645721   -0.97287641831863    0.73824542456002
O         1.96116759613894   -0.42873511378778    0.26316124595225
H         3.55505739652987   -1.20824123969623   -4.37093679620827
H         4.76066517265102   -0.03025584094992   -3.68574465702109
H         3.20592137361036    0.54348266238238   -4.02104843636228
H         3.53268472453603   -1.60835269907089   -1.88228713193463
H         2.06873783986334   -0.78641219895263   -2.43674616454452
H         4.99277599236366    1.72670101194107   -1.06843673969114
H         1.39871605064052    1.29714026241540   -1.71447166722283
H         3.91177700386315    2.58354195229783   -2.79718122627633
H         2.35692608954814    4.75497241579506   -2.43227402694036
H         2.41768851873554    4.61248704229101    0.13503985041682
H        -0.04934852744789    3.67754827839205   -1.47154104632705
H         0.31753570856854    5.33041507143909   -0.95148618539494
H         0.04857887219216    4.13114894999955    0.24413699051468
H         1.45544021426915    2.10095546401082    0.49271231793311
H         5.62182169097991    2.13695115555676    1.58503540346983
H         0.07986832052198    2.55243301018042   -5.15285071709697
H         4.95004226235682   -1.50542090049811    0.04367117447813
H         3.93281586425379   -1.71865946827783    1.44914421051874
H         5.03320283422848   -0.29692099123556    1.19140770835964
