36
 energy: -50.520584315147 gnorm: 0.301602219496 xtb: 6.4.1 (79825abcba525fcdf90b791dcacef51065a7a4e7)
C         3.02213322064218   -0.54909936806598   -3.62128247096566
C         2.85080251769669   -0.77314198207441   -2.12599237423957
C         3.40820132058748    0.40263743482286   -1.23550351519163
O         4.77433780068875    0.62823593696875   -1.62264045211250
C         2.45416043307561    1.65539737442853   -1.37619762595204
C         2.80272565423220    2.61500816421268   -2.59411958442386
N         2.85365802072182    3.96680930966059   -2.02666416161726
C         2.04554074386284    3.99012808483906   -0.79841670100019
C         0.52792837464825    4.13442013563366   -0.92703328312589
C         2.39661427953482    2.62442457214030   -0.18397866022805
C         3.74134302393294    2.71289703119995    0.51907097252665
C         4.94771315527474    2.77090409299734    1.01035111708535
C         1.77539491009374    2.51219637350549   -3.70965831619378
C         1.03160778594981    2.87521822984567   -4.71715058386140
C         3.32477232122507   -0.18568858252242    0.21045741928327
C         4.48714214497209   -0.94147660534056    0.79003357139059
O         2.22464317535581   -0.24416816514714    0.78465032400219
H         2.61214651382141   -1.39662000268244   -4.19645257215757
H         4.06497079177136   -0.37718942328209   -3.90616033954623
H         2.44014517143005    0.31943775098904   -3.91863487552042
H         3.56491111730849   -1.58764531549068   -1.92962690106300
H         1.86838195256823   -1.07700596973055   -1.74340422681647
H         5.31464072964553    1.17088272871393   -1.02352114016617
H         1.44910250735571    1.22759270570840   -1.52503241605535
H         3.76513206303621    2.33364424682796   -3.01995678775152
H         2.54138044992674    4.64306064158993   -2.72101755123575
H         2.39971197002309    4.82296502899896   -0.17926266534493
H         0.13148518543104    3.29840544597603   -1.51251513350035
H         0.29838604280075    5.10376881007441   -1.38379895572105
H         0.08462610811769    4.12992969117452    0.07546918078246
H         1.64436311502195    2.27565120220064    0.53144375219835
H         5.80650612312593    2.52623246750669    1.59245905182765
H         0.50546161466579    2.80441651385798   -5.64122802322454
H         5.05803303399925   -1.39784457762484   -0.01674202507810
H         4.01957982755521   -1.65352993475491    1.47760704481185
H         5.17635642314051   -0.28851714285570    1.33272868172452
