36
 energy: -50.518131352315 gnorm: 0.306115807388 xtb: 6.4.1 (79825abcba525fcdf90b791dcacef51065a7a4e7)
C         3.10772819805295   -0.48050328585659   -3.84217342001897
C         3.01139762756266   -0.77950240554921   -2.35329407762300
C         3.41618673650644    0.31444178404186   -1.29237329165231
O         4.78241566221545    0.73147202183190   -1.45547716765751
C         2.51192337120106    1.60361580753305   -1.43285251408727
C         2.83700232414745    2.54783076897205   -2.66916406300400
N         2.94815524767187    3.87351709143905   -2.05096757836022
C         2.20955158719185    3.94748740639802   -0.78164407914403
C         0.69472393843125    4.14219615143044   -0.87050030701873
C         2.45648741594967    2.53931031369935   -0.21419998994376
C         3.76534471470139    2.55258730745420    0.55853402104651
C         4.79454310558934    2.67999089061557    1.34883073474117
C         1.70403058156589    2.51099955567160   -3.68179620564996
C         0.69997009698403    2.80815786634175   -4.45871594713161
C         3.16976090289410   -0.28452855168723    0.13044073705280
C         4.40400548995051   -0.63139471371703    0.91437429408463
O         2.02948233740260   -0.37903006023608    0.61441980507320
H         2.88913076239491   -1.38925832335126   -4.42833074370127
H         4.08185915677908   -0.09022635721644   -4.15357575964567
H         2.34747440449205    0.21914338474951   -4.17980334722864
H         3.66829464455595   -1.63551766731457   -2.13500450131168
H         2.02239647284392   -1.19071168584357   -2.11530076932349
H         5.07400059915830    1.56611645864945   -1.05089882961457
H         1.45906296611546    1.28815591086901   -1.51817592626253
H         3.76354851733485    2.24760895748310   -3.15712725772305
H         2.74894391662800    4.68978666746705   -2.62627496877278
H         2.68714750563026    4.74686513554472   -0.20258990514311
H         0.27421152640651    3.34885210347371   -1.49711924652648
H         0.51331873569878    5.15090085374810   -1.25853173894991
H         0.33744574305541    4.08671351526763    0.16430509717383
H         1.64317211896999    2.22493904171620    0.44840308822227
H         5.79221664002762    2.52771491288609    1.69190326534599
H        -0.10864825441151    2.72857437180280   -5.14832787337476
H         4.11436037511618   -1.31516398398851    1.71038955065323
H         4.81622209818098    0.32023153583286    1.26491201536294
H         5.13892932575493   -1.07350265685865    0.23590698629581
