36
 energy: -50.519456467338 gnorm: 0.303701459374 xtb: 6.4.1 (79825abcba525fcdf90b791dcacef51065a7a4e7)
C         3.22429253293899   -0.51272715170104   -3.64474161773026
C         2.92123671751603   -0.82984840269936   -2.18767845298901
C         3.31643185513335    0.38886904451294   -1.26861933647743
O         4.69045637779780    0.69756760829134   -1.55820593868807
C         2.31426408112411    1.60249213985603   -1.41753231968864
C         2.71011018568203    2.48798075277133   -2.67646053808273
N         2.96543977659925    3.83606599465937   -2.15738533772578
C         2.30247172943750    3.98004961341351   -0.85280448670106
C         0.79278446721853    4.22755432929895   -0.84303139784961
C         2.41420590604100    2.57693460005029   -0.23254925759279
C         3.70367668203303    2.47374789409246    0.56558554130843
C         4.76229668093748    2.68424319411646    1.29706712773095
C         1.58442260978968    2.46115504577013   -3.69749590315524
C         0.85883570996045    2.68034440304687   -4.75840328647527
C         3.22444498559357   -0.12833730403626    0.20376884458074
C         4.46119122512553   -0.75410538810033    0.78437259202533
O         2.13818358579971   -0.12084398355717    0.80658018610897
H         2.97992904101931   -1.39141544311770   -4.26554298903045
H         4.27187187862934   -0.24926300229632   -3.82189349234362
H         2.64951764869284    0.36031973917030   -3.94291644722252
H         3.52579180621699   -1.65143527435426   -1.77363216873148
H         1.85041782262248   -1.03921132498917   -2.07204435568243
H         4.93692655818513    1.38839122793756   -0.91996465756515
H         1.31475429379582    1.16432337189258   -1.57341166466420
H         3.63079682153423    2.12063081780242   -3.12825607641323
H         2.78374094934341    4.59695424733604   -2.80930125826681
H         2.74707578514767    4.75364010082016   -0.21539462014504
H         0.16070779678721    3.39312612685939   -1.16410057540625
H         0.56543768410106    5.09546960006606   -1.47231506774692
H         0.49655397855476    4.46014184599231    0.18638532996620
H         1.55465380974611    2.40258506999995    0.42329092046286
H         5.78936053406727    2.70437368174891    1.58162610271056
H         0.13369806424067    2.87911347496340   -5.51367014079444
H         4.45069071939068   -1.83525718309753    0.65758327004829
H         4.49053107738111   -0.60634602576091    1.86866871759265
H         5.37962826824671   -0.46350700113827    0.26676623731739
