36
 energy: -50.522280523647 gnorm: 0.311314446176 xtb: 6.4.1 (79825abcba525fcdf90b791dcacef51065a7a4e7)
C         3.17416198909668   -0.53101020258609   -3.63132652009233
C         3.03302589569480   -0.79719219254372   -2.13979390764037
C         3.45384351553200    0.44732898051130   -1.26789903633894
O         4.77915393579794    0.85557340675626   -1.64735571011151
C         2.41389646504685    1.61482558714020   -1.50211721176497
C         2.82972637625903    2.57352573945612   -2.69947429831691
N         2.97944232250766    3.87811414923646   -2.04556275401892
C         2.22326893466813    3.93437795706836   -0.78571144847216
C         0.75830894174634    4.31255959738671   -1.01238432509618
C         2.34039375923799    2.49867807024349   -0.24628541532741
C         3.61455941463924    2.44981466648771    0.58106930063615
C         4.51636565381592    2.44914665560933    1.52276721939939
C         1.71480348034855    2.46253988736434   -3.72662299043574
C         0.65300788682010    2.64624413339057   -4.46071267937408
C         3.32641412330910   -0.16649612520179    0.16418735588551
C         4.55082166287203   -0.81886415357598    0.74165579721127
O         2.18476975146081   -0.20271643382674    0.65279528922617
H         2.80359642728213   -1.40999543699237   -4.18564330240907
H         4.20434798542410   -0.40248017778716   -3.97833585059920
H         2.57942787757589    0.33882123242007   -3.89810335923629
H         3.58104266838476   -1.70986533058081   -1.85938077686085
H         1.97033870825412   -0.98426669185976   -1.94090634977534
H         4.87846092305043    1.74404298903758   -1.26512975682026
H         1.36887832089702    1.28192092210120   -1.61356956157458
H         3.78038813196484    2.36130616799916   -3.18725923480644
H         2.82938182976595    4.71798833189396   -2.60148808525994
H         2.73071699083931    4.66066521248024   -0.13963897049967
H         0.13855107689092    3.48946380611436   -1.38291133680432
H         0.68812550102381    5.18032775532629   -1.67797738596769
H         0.32573954442977    4.63569212125874   -0.05843603373402
H         1.49042021952833    2.24516039519897    0.39607560796261
H         5.35605114369916    2.42245359297469    2.17885789260703
H        -0.07429667145790    2.70314177331881   -5.23759910018582
H         4.67577005774429   -0.41868034644100    1.74630290815285
H         5.35320417449587   -0.53270449668327    0.05413364892923
H         4.40596226442708   -1.90279078516624    0.74468561309423
