36
 energy: -50.510481693264 gnorm: 0.311458931166 xtb: 6.4.1 (79825abcba525fcdf90b791dcacef51065a7a4e7)
C         3.18176350241768   -0.24541971750281   -3.91704774606935
C         3.02293125237978   -0.65522942834683   -2.46024642398922
C         3.41373877234396    0.45511990905772   -1.41119213674458
O         4.78967225486348    0.81448206597697   -1.62276830560552
C         2.41748907648416    1.68242345689528   -1.43586778031642
C         2.90146990460562    2.89828034097213   -2.33761003287961
N         2.25714073681721    4.10275255859402   -1.80277108618854
C         1.79744688476393    3.84023416145969   -0.43092751884921
C         0.28542102406730    4.00428069513493   -0.26546980674741
C         2.29392025396023    2.42377057349098   -0.09465692081595
C         3.67853767229217    2.43661623694369    0.53229696519515
C         4.77022934694701    2.57026493875609    1.23258064102004
C         2.44434613199463    2.73453849018175   -3.77796826145861
C         1.95604887276225    2.65721753442795   -4.98446403960697
C         3.19466149809649   -0.24109558358655   -0.02873776682580
C         4.39942617213631   -0.85491305905858    0.62700445633872
O         2.07278631872506   -0.40860484301509    0.47795565484004
H         3.33819630910097   -1.10642855685675   -4.58890600929461
H         4.06673114714395    0.39135271874666   -4.01488313154531
H         2.29707309058524    0.34901501464935   -4.13025068812334
H         3.69364305439815   -1.52486909539663   -2.38409729390700
H         1.98911720558052   -0.97173717132004   -2.27340813540994
H         5.28886796969977   -0.00593772728528   -1.77459634475679
H         1.42427790757398    1.29188029703121   -1.71212432655420
H         3.97426837902898    3.05172008681304   -2.22675541315663
H         1.47903951576500    4.33439854124597   -2.41747296789905
H         2.25756565913855    4.59167567377168    0.22178430090914
H        -0.26037833101834    3.45778002325096   -1.04156054857194
H         0.08805290798775    5.07085434110984   -0.42176408000422
H        -0.02745374137518    3.74805483810576    0.75335596059008
H         1.68574488401192    1.85169932545949    0.61401163517779
H         5.73820709121340    2.66110263889807    1.66962390482400
H         1.38241133960730    2.36883337216605   -5.83507342821161
H         5.11092913136537   -0.03964721645947    0.74608487641846
H         4.90199242347081   -1.52925093674497   -0.07377178152554
H         4.12533623595137   -1.26254614379932    1.60404096692811
