36
 energy: -50.520862380037 gnorm: 0.296668521670 xtb: 6.4.1 (79825abcba525fcdf90b791dcacef51065a7a4e7)
C         3.07340954658242   -0.40855354618631   -3.67911170916047
C         2.93773820217150   -0.81387226216126   -2.21871731072132
C         3.41023567109865    0.31999262841594   -1.23017413506502
O         4.76836766399570    0.71029280471349   -1.49520590463162
C         2.46433048659111    1.57868420598155   -1.37284589058160
C         2.86628546073066    2.54392974012622   -2.56968245040085
N         3.01472774046383    3.86832756044520   -1.95657446763471
C         2.14308918089313    3.92340814899586   -0.77361146208432
C         0.64597089227544    4.10293813409824   -1.03229183335898
C         2.47499880570365    2.54502086562691   -0.17710721087541
C         3.82701688580264    2.60818868779614    0.51459974256270
C         5.05859696577821    2.95810742623144    0.76121137022972
C         1.76475995868994    2.42504029143221   -3.61031314220328
C         0.80653791057771    2.78864246159219   -4.41632107171533
C         3.15233084391948   -0.23943884446338    0.20663220541758
C         4.29682823927651   -0.87444487660122    0.94495510707364
O         1.95868731608678   -0.27826948343491    0.54884383656575
H         3.03300272639891   -1.22545491018912   -4.41954429836089
H         4.08121025082166    0.00319927937184   -3.79319931581207
H         2.31965752951440    0.33617614332229   -3.92143557144805
H         3.58029536519468   -1.69704814072566   -2.08070709480381
H         1.88967837058572   -1.02390815760330   -1.97110331129868
H         4.86815676342819    1.54774169525380   -1.01141023799235
H         1.44797697806469    1.21644877792822   -1.59894564917078
H         3.88048575063089    2.35933987408805   -2.92189462956432
H         2.93192285944165    4.55307167301137   -2.70572640400374
H         2.56090079687890    4.73773022033801   -0.16969145919318
H         0.29183359711434    3.34920139889950   -1.74316768075862
H         0.49729134828553    5.08534597608861   -1.49460194354565
H         0.03141064338869    3.94186642696855   -0.13902823464538
H         1.79541614124036    2.22283870004417    0.61895809113769
H         5.99970214566303    2.97781454975805    1.26138322941216
H        -0.03698002809433    2.79747005049204   -5.06759777112827
H         3.93827217814480   -1.70401462260660    1.55185425883549
H         4.78962630186561   -0.10860279155207    1.55243161892819
H         5.05067848506460   -1.17896299419231    0.21360779632420
