36
 energy: -50.520661045553 gnorm: 0.312690985325 xtb: 6.4.1 (79825abcba525fcdf90b791dcacef51065a7a4e7)
C         3.10101505757849   -0.72157016201922   -3.61058362875042
C         2.80269360237503   -0.81850429827914   -2.12160752013371
C         3.30778531762443    0.36162246563418   -1.20601795849663
O         4.65399146687153    0.69036768382573   -1.58910302710198
C         2.38434043780461    1.63756196673781   -1.34248870566091
C         2.74752205170164    2.59653803707352   -2.55663388548281
N         2.95431394142692    3.96319599776298   -2.06525903989506
C         2.18237921857123    4.06128008670789   -0.81758703796604
C         0.68047799379349    4.30071429109739   -0.98333896699709
C         2.43929807517966    2.67294746383291   -0.20729362355160
C         3.80221899169816    2.70227449759257    0.46500695717627
C         4.97189366798664    2.66904507777379    1.04016506849034
C         1.63123484086197    2.49640769249291   -3.58341632653931
C         0.96908610261759    2.58872114956069   -4.70282782753827
C         3.24289203209137   -0.27740996996225    0.21922494800025
C         4.53313302132274   -0.87961791257868    0.69969497491306
O         2.16849017620443   -0.24456716235187    0.84210815613370
H         2.69181695912592   -1.60150358700473   -4.13544080339672
H         4.17705070848203   -0.71621822074488   -3.81142501469995
H         2.64979774974688    0.11520723765973   -4.13754832401727
H         3.22834077090890   -1.72797189158474   -1.67036551132622
H         1.73919763911657   -0.87452976434936   -1.85761004216029
H         4.94894433273100    1.50233911363927   -1.14296184387982
H         1.31517772033328    1.40124813140604   -1.47038287300736
H         3.69089000634233    2.27458476964817   -2.99610183678335
H         2.82368833833875    4.65265564729880   -2.80319000985000
H         2.59846417410074    4.90588594071651   -0.25551887999705
H         0.26422828605036    3.55240473703569   -1.66572137720496
H         0.44271766201384    5.27342511049102   -1.42860866075980
H         0.22234244933185    4.29360940683626    0.01245699534068
H         1.73209582667891    2.49684575964194    0.61014572115763
H         5.91675268613578    2.78120065909004    1.52068746560090
H         0.21999915267793    2.80267414287830   -5.43005176383865
H         4.87828125300627   -0.37575816142265    1.60084593108599
H         5.31725684329171   -0.85479529590565   -0.06380054611137
H         4.30216725137959   -1.89527629908797    1.03283641929533
