36
 energy: -50.517567455518 gnorm: 0.304415208466 xtb: 6.4.1 (79825abcba525fcdf90b791dcacef51065a7a4e7)
C         3.84151181290139   -0.23484764417624   -3.70294416633870
C         2.99640057992299   -0.58317008508234   -2.48643265110360
C         3.36381224911429    0.41171097051561   -1.31966727958352
O         4.73558465298290    0.83338230825520   -1.40645643528845
C         2.41822651803024    1.67674789696644   -1.38999200715652
C         2.79684784889509    2.78600699074720   -2.46324624727031
N         2.66730165700089    4.06173727654297   -1.75071826682227
C         1.88042481285807    3.83432641029389   -0.52953103517971
C         0.35953514424677    3.85544485188948   -0.69372102046554
C         2.44383391682834    2.47643970433467   -0.07715209292594
C         3.82642015078908    2.72253523890123    0.50447824877249
C         4.99318949728465    2.85930375001491    1.07015798815272
C         1.82595544889515    2.54589364628219   -3.60785051226215
C         1.09411545427231    2.70889032616059   -4.67456843767793
C         3.08602332880089   -0.35793287294296    0.01238851371133
C         4.27797608809015   -1.17765275623127    0.41924919652012
O         1.94959791544072   -0.34853180371982    0.51423550100668
H         3.80052418804015   -0.94945706843926   -4.54250021426370
H         4.90218975466968   -0.20332773921606   -3.43426697963772
H         3.55129735834798    0.69847511916892   -4.17851693658789
H         3.17171186732811   -1.62640584121739   -2.18171758235756
H         1.95858520357300   -0.44048999039403   -2.81268227706473
H         4.94715139194692    1.48009235151255   -0.71194769700587
H         1.39459575451882    1.29927255811235   -1.54811380113304
H         3.82072853808263    2.62834472260464   -2.80020324957534
H         2.27062548813522    4.78055523852914   -2.35313716425706
H         2.11261996618108    4.62386707496920    0.19511874500481
H        -0.00997843579967    3.32294031925674   -1.57620353899393
H        -0.01273466892194    4.88365330598097   -0.76558181989612
H        -0.05976087209174    3.34379769788591    0.18032491347037
H         1.85692503791941    1.96705391704676    0.69448124129215
H         5.70880097147876    2.90135474337889    1.85906301607909
H         0.46167668236434    2.55284692938086   -5.51803357959368
H         5.18971391219646   -0.58306478793044    0.40268759274046
H         4.35684104869953   -2.03574216409855   -0.25592088108456
H         4.06589327443731   -1.54040962054234    1.42886234482185
