36
 energy: -50.514837105583 gnorm: 0.301583809516 xtb: 6.4.1 (79825abcba525fcdf90b791dcacef51065a7a4e7)
C         3.13179421052688   -0.55778271890624   -3.65301936577785
C         3.08621103022511   -0.90063651588970   -2.17119102724751
C         3.45085419349527    0.34618675600882   -1.27755342874632
O         4.82273363544366    0.66669742092125   -1.56446507653318
C         2.44362945659913    1.55082491709401   -1.46124216322427
C         2.66327026182593    2.45090132465870   -2.75248373996298
N         3.06329767722327    3.75318981885977   -2.20843520085369
C         2.39332113164007    3.94263402448803   -0.91327828391299
C         0.94591342418986    4.43145483765179   -0.99436383722826
C         2.46636694720798    2.54055666739331   -0.28496608304368
C         3.71710337239196    2.40659298591365    0.56832971620311
C         4.55092603716584    2.79826226239929    1.49103490983192
C         1.44522833752823    2.53727944986860   -3.65764560285445
C         0.46421855911433    2.80130990121758   -4.47492920669792
C         3.27343458118085   -0.17926888014786    0.18405855997794
C         4.47705102949092   -0.61484055421754    0.97134023367871
O         2.11492270500879   -0.40464770242522    0.57194529525253
H         3.11735465403397   -1.48771663700237   -4.24649672771391
H         4.09718015893894   -0.11158786161572   -3.91216941876857
H         2.33410433462336    0.09446087990688   -3.99907487749947
H         3.64784356647520   -1.78838203781273   -1.84194500830751
H         2.02240485357872   -1.13566922694823   -2.04106328943083
H         4.75321327065384    1.63273739758520   -1.47919818489551
H         1.46018913846669    1.06611550643156   -1.34629877186186
H         3.51233333503650    2.08691640005069   -3.32983625051118
H         2.89136826438745    4.52809441655680   -2.84634029376502
H         3.00595212288234    4.67016652493315   -0.36758048978664
H         0.40332938389712    3.74611636092864   -1.65375028981441
H         0.83277169176149    5.42338412084408   -1.44628933785700
H         0.48387931271487    4.43947980973587   -0.00037775454754
H         1.56880767217171    2.33166811945422    0.30673218935910
H         5.28811584886066    2.62878871381249    2.24208026908903
H        -0.47734233265773    3.00882873706331   -4.92897851657141
H         5.17333373592809   -1.08416934441206    0.27852288420064
H         4.13786073203698   -1.33321659507628    1.72451853481237
H         4.92491557203781    0.26953063306498    1.43307102292799
