36
 energy: -50.517884633375 gnorm: 0.306642656463 xtb: 6.4.1 (79825abcba525fcdf90b791dcacef51065a7a4e7)
C         3.42483882933445   -0.50728720103206   -3.55775684083034
C         2.86742382497314   -0.77907563344372   -2.16820246945246
C         3.29165568661673    0.39278697609326   -1.20234200093565
O         4.64087235452229    0.72035467336530   -1.57572169554102
C         2.35045895678475    1.65676313614310   -1.32847431351224
C         2.68086560104947    2.55582184049479   -2.59662627485276
N         2.93017585412299    3.87901994947176   -2.01442591466683
C         2.19166928395942    3.97990355409168   -0.74690089340378
C         0.71358619144905    4.25913840634578   -1.02584177256048
C         2.42440793828206    2.59722140509219   -0.11448041507654
C         3.88510063721440    2.61011777977740    0.30577207902780
C         5.05922247321182    2.43012311154278    0.84344278317049
C         1.52319438063094    2.53011534278098   -3.58127945262239
C         0.76771732250572    2.58228181565279   -4.64268318279201
C         3.15884712210069   -0.18228810776094    0.24525652968830
C         4.39285583040770   -0.86165313847415    0.76862384702243
O         2.06323373021864   -0.09123708050856    0.82382589439227
H         3.29466067454166   -1.39228714553884   -4.20353522430103
H         4.45419075153185   -0.16297125980576   -3.41598312287707
H         2.86741852860772    0.34205243487227   -3.94426694885291
H         3.25185159251375   -1.72886275412905   -1.76565323686300
H         1.77419042579359   -0.85709384662158   -2.11710371397669
H         4.95012854784145    1.45678061247867   -1.02130831331259
H         1.34849759011084    1.19731339642015   -1.34548717384829
H         3.58820424264155    2.28840352136604   -3.13695312578476
H         2.90077808787864    4.67512203817570   -2.64871055508976
H         2.61404351847166    4.78991970078430   -0.14036959720779
H         0.33342787812573    3.48506494402527   -1.70050220364109
H         0.58485940010091    5.27508612727874   -1.41602257584383
H         0.15877029636207    4.23886342514826   -0.08068754947359
H         1.71984742387044    2.35230995025631    0.68737168339914
H         6.08958694084613    2.54057573947344    1.09321972577696
H         0.00087103777475    2.49322584407328   -5.37737875326387
H         5.25499700038665   -0.45955314264092    0.23937608070647
H         4.31448706555229   -1.91464472289656    0.47973146230271
H         4.40895829721391   -0.67329962223869    1.84572831532424
