36
 energy: -50.520789099472 gnorm: 0.308185265262 xtb: 6.4.1 (79825abcba525fcdf90b791dcacef51065a7a4e7)
C         3.64244326502853   -0.38501514424208   -3.70516079647972
C         3.08801020931604   -0.77172689171695   -2.34189273910035
C         3.37487523193430    0.37216587594193   -1.29530835530449
O         4.72083713297067    0.81349665015215   -1.54170701979784
C         2.36146356225474    1.58208341250251   -1.38746418370226
C         2.67206090032253    2.52946364944649   -2.62507659681418
N         2.84747130585910    3.86493277071303   -2.04394018842919
C         2.17647831756225    3.96204208167331   -0.73913088481908
C         0.66420137897354    4.18545080981934   -0.79927016515046
C         2.39746106731853    2.54312971782299   -0.18796197877887
C         3.76794916001882    2.53254938701826    0.46934466236407
C         4.88748160327969    2.43362484581166    1.13033706252839
C         1.51541376401276    2.50558848878786   -3.61097860833410
C         0.66836606294727    2.97135412790705   -4.48597426247136
C         3.17600334180459   -0.29670428420467    0.10360323263300
C         4.35805435441079   -0.94539476290857    0.76706666943590
O         2.04925735618231   -0.21436040520370    0.62038603483818
H         3.61394317531995   -1.23707948467435   -4.40542865809683
H         4.64531091589441    0.03421520017201   -3.57585099388211
H         2.96035938726487    0.31687726565305   -4.17801796286047
H         3.52899608120857   -1.70332232979842   -1.95512722197450
H         2.00337170720478   -0.92099803652150   -2.41354906401814
H         4.72081649995513    1.73411563767443   -1.22898120329362
H         1.34845784331356    1.14751423132691   -1.40417075490482
H         3.64114870458424    2.27584014184497   -3.05318058342325
H         2.58813605168986    4.61267933851192   -2.68470541151736
H         2.67777703158989    4.74608842244053   -0.15915046323164
H         0.09330670531334    3.29190798131273   -1.07228526754215
H         0.44466042860951    4.99411338226097   -1.50554775270140
H         0.24360278823774    4.50411194188409    0.16151085139681
H         1.71738051336659    2.28933924475443    0.63205921225044
H         5.78768136386058    2.53446678908108    1.69221828296114
H        -0.17296921134283    3.02626739106189   -5.13781878608016
H         4.76772970397015   -1.79743202967282    0.22736897896100
H         4.12337144145534   -1.40350404785278    1.73321963570574
H         5.14704502770829   -0.19375047408361    0.85879969581634
