36
 energy: -50.519454311642 gnorm: 0.300029479462 xtb: 6.4.1 (79825abcba525fcdf90b791dcacef51065a7a4e7)
C         3.08852518973790   -0.62977083686682   -3.63487027425185
C         2.92398374012388   -0.86090100193008   -2.13989645596406
C         3.38400031401390    0.35415476099670   -1.24650668986073
O         4.75420114866075    0.68357514730080   -1.53134074523937
C         2.44103824322897    1.60804006135361   -1.44141816265204
C         2.81024211294084    2.47256171043506   -2.72281400042007
N         2.95944802066946    3.81187605213275   -2.14321000278232
C         2.21066771680486    3.89717710322120   -0.88057747703422
C         0.73615674816326    4.25362210796814   -1.07875432422766
C         2.49644300940094    2.53842932483136   -0.21870910112167
C         3.87190675274298    2.47296987389994    0.42488710538187
C         4.94872924066619    2.73587006534975    1.11146317470509
C         1.60818511740489    2.41019007807513   -3.65102419244561
C         0.61669621067694    2.98839599706413   -4.26962948102729
C         3.20178422027714   -0.20391117745678    0.20237239550138
C         4.43635102581753   -0.70404784530003    0.89802730574768
O         2.05327646537984   -0.19410796996454    0.67590729982459
H         2.98628966648234   -1.53301406145336   -4.26009066748455
H         4.10947153669965   -0.25537716479707   -3.76023599048470
H         2.35381923857632    0.07102549672474   -4.02291270648258
H         3.40515024453774   -1.80501492419330   -1.84147754618412
H         1.84396213241240   -0.94418928781385   -1.96532966392032
H         5.02996856088878    1.29965051410787   -0.83152632114145
H         1.38938694422808    1.30489655835602   -1.57349244648390
H         3.73402030072206    2.23531487160911   -3.24919490716974
H         2.79110718991503    4.62175316338711   -2.73711251728021
H         2.67321085310475    4.74913251955900   -0.36810098363793
H         0.17954211560098    3.43207789493186   -1.54148752029656
H         0.66808144262050    5.18018135635713   -1.65997297673002
H         0.29620446263393    4.45027727150060   -0.09421535481111
H         1.83011493413967    2.30349323382567    0.61805001432341
H         5.91260600085081    2.91551823463783    1.52968239743156
H        -0.13894516562844    3.04603186317043   -5.01892649550436
H         4.56946650103761   -0.19473961305016    1.85089685763482
H         5.32621895035237   -0.57038268794070    0.27460093576956
H         4.30540927455206   -1.77355044139071    1.08486632070199
