36
 energy: -50.518855862597 gnorm: 0.309914067895 xtb: 6.4.1 (79825abcba525fcdf90b791dcacef51065a7a4e7)
C         3.16101309017492   -0.45744897350503   -3.73836960106664
C         2.99073865126853   -0.79145786028366   -2.26361997590860
C         3.39039492558561    0.37509920992507   -1.28100075025859
O         4.75019762327869    0.75676162343262   -1.55001565695075
C         2.37382887019311    1.58194289788598   -1.37856163434568
C         2.74198051696312    2.48972595422814   -2.62999232890881
N         3.04033595654060    3.82600288932734   -2.10338613041419
C         2.32671994983702    3.96970380675455   -0.82577454209783
C         0.86753531519260    4.41602207968597   -0.93572877063570
C         2.43630833805155    2.56842688305354   -0.20099761722480
C         3.75883677713970    2.54179171040259    0.54774176812665
C         4.89023694519238    2.73092699878231    1.16758965541739
C         1.67317326606779    2.54614773341408   -3.70928516462773
C         0.55719542466380    2.43127198778258   -4.37369605878706
C         3.17336037526967   -0.26651785060979    0.12794016916131
C         4.36817413325292   -0.76722166809498    0.88948035295338
O         2.05562278964081   -0.39083716216834    0.65577432818450
H         3.14927669605598   -1.30255883272746   -4.44749057288259
H         4.16531855759733   -0.02860661948502   -3.81375790284036
H         2.45184572987168    0.29735550897471   -4.06827430922523
H         3.60628994120600   -1.64386033066093   -1.93737956607775
H         1.98234697186925   -1.08776435337379   -1.94865034335916
H         4.78049222016925    1.70081188598615   -1.31939021296608
H         1.32888056090911    1.23090437213114   -1.39140889263279
H         3.53733547840359    2.03169521557887   -3.21680355334701
H         2.75775492053103    4.51602940299000   -2.79690696290697
H         2.88367584052040    4.69142184947135   -0.21640637502850
H         0.32132442647280    3.86533910415962   -1.70856684366433
H         0.77371607460006    5.44816580425294   -1.29187297762520
H         0.33438304332216    4.35147864413084    0.01985013936950
H         1.62426882494012    2.36793414242835    0.50593123519443
H         5.67767788858846    2.67670723011293    1.88399470403359
H        -0.17485513321394    2.45011813164495   -5.14797545883987
H         4.87434951749517   -1.57773495000784    0.36801156284270
H         4.06304541440270   -1.19959976611056    1.84777957133054
H         5.04715765984766    0.08293953831634    0.99946973575488
