36
 energy: -50.515336636563 gnorm: 0.297891036142 xtb: 6.4.1 (79825abcba525fcdf90b791dcacef51065a7a4e7)
C         2.91117555655928   -0.58654732831238   -3.66507643852980
C         3.01379528912720   -0.89104587852452   -2.17773263095129
C         3.49620984114356    0.35546061485635   -1.34130042286880
O         4.84658499217796    0.73107137242519   -1.66145991395612
C         2.52093694539211    1.58425423821787   -1.53701799995081
C         2.92691197074445    2.63960342153767   -2.65375740073688
N         2.87751580246941    3.93296539763693   -1.96329311240383
C         2.04315671190545    3.83367713302539   -0.75657198686796
C         0.53098773031336    4.05316220857696   -0.83194438045005
C         2.41917607064074    2.42861405533953   -0.25623207201990
C         3.75571188747797    2.63559029241213    0.43747856414097
C         4.76850652284043    2.69766054927287    1.25628515379631
C         1.91621167221268    2.63721999695723   -3.78904795614150
C         1.02628493695116    3.18525398179972   -4.56862092062620
C         3.27884387051653   -0.15536738090863    0.12010223955954
C         4.41414112606413   -0.79586681541534    0.86782430078500
O         2.12803942894093   -0.24359145686610    0.57974029661324
H         2.69885621289932   -1.55434209618564   -4.15035445913497
H         3.86701196868430   -0.35540892768705   -4.14587829170777
H         2.13898053219969    0.14265938469464   -3.89628561203588
H         3.67478939098348   -1.73078511301136   -1.91343927251751
H         2.03100396218426   -1.08933505944921   -1.73201994486969
H         5.06331442821544    1.47537032460187   -1.07461736554786
H         1.56357661570163    1.10828687153196   -1.80576759004876
H         3.91654697041095    2.35796414084378   -3.01157155178456
H         2.65314625379598    4.69192332303463   -2.60407462548545
H         2.48447767767254    4.57214841200087   -0.07664380185433
H         0.04962763982919    3.24309618338032   -1.38958428112931
H         0.23931450580526    4.98414799367515   -1.33109727269167
H         0.14497704607440    4.08623717411574    0.19345800481880
H         1.79653182447628    1.97168102350152    0.52022157522589
H         5.55549533769633    3.14282771987240    1.82083278086139
H         0.16656502347321    3.17244321807502   -5.19828699017475
H         4.70295762397421   -0.28883076301812    1.78683162671920
H         5.29642834424858   -0.90405357331481    0.22887467011310
H         4.09713620407784   -1.77645429083993    1.23367461068541
