36
 energy: -50.518702781195 gnorm: 0.304011478780 xtb: 6.4.1 (79825abcba525fcdf90b791dcacef51065a7a4e7)
C         3.27555664134953   -0.48858926687279   -3.72878349138798
C         2.98436654257917   -0.74809130453180   -2.25796440602726
C         3.32072045534192    0.37585508305876   -1.20452640801285
O         4.70925269009401    0.66430532548401   -1.44090172301142
C         2.41824113397371    1.66447013311056   -1.36072710165905
C         2.75509874815472    2.53696272112645   -2.64562714367963
N         2.96620570848889    3.88166256915814   -2.09865157585307
C         2.24889218269275    4.00559651388878   -0.82104020449151
C         0.77217123487999    4.37970941749266   -0.96191077464395
C         2.38556509304616    2.62364400645614   -0.15963213578211
C         3.74570352190174    2.63268396883453    0.51885392997268
C         4.94640034517202    2.83082911641638    0.98695175392613
C         1.69002431915259    2.44478456293811   -3.72614785875131
C         0.57664193461576    2.51217845101121   -4.40133860484847
C         3.18572194223811   -0.24512854785888    0.22377526619995
C         4.33196159386117   -1.05484958300671    0.76109655998027
O         2.09714374435797   -0.13354004995908    0.81194786750100
H         3.56553746161378   -1.43601741382077   -4.21405867098182
H         4.18847249649928    0.09207851967415   -3.89500078888575
H         2.51446213709910    0.02459420454480   -4.31090301735569
H         3.62486136923116   -1.61200984718515   -2.02272561214781
H         1.95188011955304   -1.09629829769591   -2.12919774420302
H         4.86905465726720    1.35600184473676   -0.77655541606922
H         1.36259703644434    1.36557377536328   -1.46836809603415
H         3.70017518338303    2.26621679595098   -3.11494180705211
H         2.59212960737881    4.60174181858742   -2.71388545252025
H         2.74753941861002    4.77157376185169   -0.21520511709498
H         0.21501766275430    3.57600657001910   -1.45437234068180
H         0.70763985424680    5.27428600569203   -1.59161693344496
H         0.36193657356599    4.60192544367541    0.02999437070457
H         1.58538098457481    2.37250423894190    0.54463211089425
H         5.83640237782758    2.91683248212121    1.56724395035451
H        -0.04578727310541    2.48494672249804   -5.26597847140532
H         4.68130797140230   -1.84850891879481    0.10296514364036
H         3.97460904127951   -1.52548093048658    1.68261543314549
H         5.22583112174100   -0.47463157906040    1.00652414419594
