36
 energy: -50.514096881406 gnorm: 0.309442388996 xtb: 6.4.1 (79825abcba525fcdf90b791dcacef51065a7a4e7)
C         3.38676702452749   -0.42073139082749   -3.75860850149680
C         3.05953441953377   -0.80317586863107   -2.32260821700734
C         3.38065695440228    0.34576726021455   -1.29162273220210
O         4.78028088101674    0.63456124786500   -1.44894241872008
C         2.40685204618531    1.58378935709775   -1.42727529892086
C         2.75222043091241    2.58583244828087   -2.61146903298040
N         2.92170223660627    3.90455527362370   -1.99162057595026
C         2.18871148328169    3.95286588558731   -0.71781534734638
C         0.70778653477408    4.29763917032296   -0.88664192515136
C         2.36427859745417    2.51381367197663   -0.20377472880208
C         3.71727010764503    2.39513950243900    0.47867090979017
C         4.78390211388453    2.85569987535500    1.07047346340447
C         1.66217017297818    2.50304765421253   -3.66756678256994
C         0.72032757242077    2.75382741372451   -4.53364231166209
C         3.17072661713307   -0.25966375680267    0.13430625485199
C         4.36773268387813   -0.77828710211715    0.88025127483756
O         2.05555988118378   -0.50956515531466    0.62149608700203
H         3.50890669442813   -1.29972016887878   -4.41409427480353
H         4.30529485091519    0.16789986648865   -3.84826620019878
H         2.56763316226846    0.13411640693063   -4.20877392132415
H         3.75304074144052   -1.56191214687034   -1.92853409524391
H         2.03756949774441   -1.16380102620226   -2.15116034165881
H         4.87336333379439    1.49347131411264   -1.00290888555912
H         1.40311113598785    1.14755820460449   -1.55962572454876
H         3.71656400702430    2.35200474116867   -3.06101895731731
H         2.67636571352041    4.62203308500167   -2.67132297467363
H         2.48380807626855    4.64664973909350    0.07841848873215
H         0.12044353422197    3.73174240742072   -1.61716626668522
H         0.77821200990863    5.34616330351377   -1.19744542172665
H         0.15468057414099    4.31970647621016    0.05947386290321
H         1.63770402536379    2.13879991336342    0.52479098431461
H         5.76761415158660    2.91290395685081    1.47701689671241
H        -0.13865000211915    2.84996072536071   -5.15708250856528
H         5.09466499941944    0.02105260020127    1.01329429671962
H         4.88995478813059   -1.54006890371673    0.29257423208225
H         3.97113155606902   -1.23104729237393    1.79327160619370
