36
 energy: -50.516802041691 gnorm: 0.303609300916 xtb: 6.4.1 (79825abcba525fcdf90b791dcacef51065a7a4e7)
C         2.53704176658337   -0.69611579317968   -3.46426081734142
C         2.81035873859103   -0.85628599274819   -1.97594461794257
C         3.41685416458255    0.38500567819357   -1.21602400072718
O         4.77489240905638    0.61081311661196   -1.63056193278915
C         2.48064605395111    1.64698678962787   -1.39013417722141
C         2.80609300187802    2.57812629544433   -2.63622725654949
N         2.88944079152986    3.90167741998097   -2.00914539042604
C         2.05079980157965    3.96511655713429   -0.80297546676706
C         0.56627017238275    4.17108768912949   -1.10998910447773
C         2.45873715101553    2.61278322905396   -0.19411220524457
C         3.80510888012560    2.58300942795543    0.51072694030020
C         5.05019405309421    2.57760560803323    0.89774578002880
C         1.75798037883530    2.64206711245956   -3.73521627277500
C         1.19138097731406    2.76026017979232   -4.90356567288044
C         3.40448840849060   -0.05346213282289    0.28447058374415
C         4.60894961276496   -0.76564817533500    0.83245955885058
O         2.37755144316195   -0.03496114316933    0.98336948326466
H         2.05333503094461   -1.64221378510465   -3.76112333740513
H         3.40717770896970   -0.53178567563808   -4.10774949691295
H         1.83054588609318    0.10955070921780   -3.64660753271330
H         3.56651639384463   -1.63531216494256   -1.79354398861408
H         1.89173653453263   -1.00652120297243   -1.39506613158264
H         4.99895365737801    1.55115484201238   -1.52620319062267
H         1.47986352766676    1.21710060668340   -1.56025843444781
H         3.77267296960330    2.34049800122267   -3.07892921730151
H         2.77872324951078    4.62033380486649   -2.72205099290720
H         2.46409102486712    4.78391303656227   -0.20200206071875
H         0.21719152710512    3.42017199774621   -1.82633153658091
H         0.35743133837971    5.14306785884234   -1.57107727173793
H        -0.06964989006265    4.17102683319325   -0.21715434022546
H         1.81305517244811    2.22534535544984    0.60108624919544
H         5.98277365792495    2.49754454051787    1.40777000282875
H         0.42045721403326    2.68512905223736   -5.63554493944658
H         5.41991622156900   -0.60242824021404    0.12481034394608
H         4.38803151367687   -1.82240117751680    1.01373291719641
H         4.84655408071910   -0.30492441004522    1.79535524244794
