36
 energy: -50.519448783276 gnorm: 0.313763523164 xtb: 6.4.1 (79825abcba525fcdf90b791dcacef51065a7a4e7)
C         3.27957031800020   -0.45572367966941   -3.68801273349126
C         3.03300571644620   -0.80870289162187   -2.22854250660287
C         3.37156977267946    0.36431997435890   -1.23078863364119
O         4.72583984501414    0.80828800906291   -1.42037641267757
C         2.37594854905073    1.57916071661525   -1.41050140821485
C         2.80848904493111    2.53339178762181   -2.60550612316855
N         2.96441553707808    3.88674407868444   -2.06136405508761
C         2.20035562667160    3.95931588747422   -0.80711730773036
C         0.73138149453575    4.33268060562523   -1.01501993556898
C         2.42649867337064    2.55443786100293   -0.22307119131405
C         3.81364713991633    2.57857730930005    0.39792637413377
C         4.91516476653118    2.63398241130325    1.09336801486013
C         1.67117492598755    2.45440444611128   -3.61083341908426
C         0.63715022899461    2.57577616360227   -4.39575802054821
C         3.10718582162859   -0.25599914216626    0.17960004966483
C         4.33346333018758   -0.92704993824313    0.73110885214400
O         2.01841070026907   -0.22650751217966    0.77717887472098
H         3.60353471339713   -1.36681374813238   -4.21920283916975
H         4.17941306845153    0.16596595837294   -3.73277485972596
H         2.44571168986010    0.03602489790852   -4.18232881614427
H         3.76901758622048   -1.53084791137542   -1.84290113395203
H         1.98901689858028   -1.09614988787379   -2.05157145765934
H         4.94761670834382    1.53872998201861   -0.81820841718621
H         1.34103006906424    1.22093058949492   -1.53669557529211
H         3.70291573254708    2.25999667795633   -3.16406236971636
H         2.70603810756541    4.63442024668969   -2.70259819260986
H         2.65605948292555    4.72087221378961   -0.16308912086556
H         0.28938066355727    3.79845074698407   -1.86243393196602
H         0.68722421354630    5.40951339017043   -1.21362180344298
H         0.09559505492245    4.12499428818083   -0.14657866171767
H         1.67734825279735    2.21104321239765    0.49818303888174
H         5.81392699553328    2.95797661411391    1.56611892135027
H        -0.12660501996495    2.65670442943833   -5.13460192323210
H         4.10413235068125   -1.62847508120776    1.53141195900115
H         5.02377499424635   -0.16273545418472    1.10216803568561
H         4.80595871539786   -1.40571840710272   -0.13116429260099
