36
 energy: -50.518755552134 gnorm: 0.304315366631 xtb: 6.4.1 (79825abcba525fcdf90b791dcacef51065a7a4e7)
C         3.28277766103827   -0.47680438412191   -3.74907781971865
C         2.81581027202859   -0.84525909356687   -2.34849781441698
C         3.24906438159200    0.26364946088568   -1.31470202828801
O         4.64974043361364    0.54847605505556   -1.46987605933994
C         2.43080803357205    1.61520272507141   -1.37088602991391
C         2.94356422054211    2.64646384532427   -2.46599610920907
N         3.02258070625925    3.94322081672723   -1.78471508264934
C         2.13636803448793    3.91930911982537   -0.61158062507515
C         0.62377222830114    4.05065810634273   -0.79949310577540
C         2.49409405130055    2.50648410844512   -0.11975704554980
C         3.90586890954334    2.66259306324317    0.42146689773187
C         5.13154869095228    3.10584966872873    0.38565353526986
C         1.87625840942775    2.57532995786489   -3.54590519209960
C         1.11629578628853    2.64885282757647   -4.60283281486238
C         2.97148260797977   -0.31434648686455    0.11104688453177
C         4.18602914498948   -0.53703457886505    0.96750141997496
O         1.81300221530345   -0.62453793355190    0.43524732137147
H         3.07332906857742   -1.34993311506939   -4.39015385029002
H         4.37160468889435   -0.37797308519293   -3.69516394561854
H         2.79523991869783    0.37696933993135   -4.21261060439051
H         3.29003098781334   -1.76595984378807   -1.97520034139076
H         1.73276460518276   -0.94060166170375   -2.20092053877433
H         4.90893583537408    1.30170493305882   -0.91238099186901
H         1.35735001299646    1.41122993703453   -1.51714963432644
H         3.90457078406408    2.32975907085428   -2.86959681929202
H         2.91942072194046    4.79162406663856   -2.33836633401086
H         2.51848630645129    4.69697661469528    0.06045006707166
H         0.18553448177631    3.20041882782119   -1.33233230012016
H         0.32106125377551    4.94570841136093   -1.35466193630558
H         0.10110992641254    4.01692635825890    0.16343707885503
H         1.83182320220977    2.12110406916648    0.66269644692604
H         6.12494299264521    3.29661569597423    0.72183104792764
H         0.29514556318135    2.50290469982064   -5.26628833253624
H         4.03017341165144   -1.00602969085549    1.93746407971968
H         4.59172337463394    0.45079452818490    1.20832830711922
H         4.90151389983103   -1.13286363882466    0.39395136939389
