36
 energy: -50.517719743824 gnorm: 0.307128468971 xtb: 6.4.1 (79825abcba525fcdf90b791dcacef51065a7a4e7)
C         3.32493633285805   -0.77447361014138   -3.69901385993893
C         2.88810654020299   -0.75592997580978   -2.24152367523262
C         3.43521271034766    0.39858118594412   -1.31745663929988
O         4.80024038991433    0.73224700337607   -1.62153744387872
C         2.44526850947834    1.62633042546189   -1.42717732397816
C         2.81250347146389    2.60210730793702   -2.62662821643107
N         2.92992047509886    3.95122923471856   -2.06266955006060
C         2.15642005225968    3.93216551115044   -0.81226050063767
C         0.65563427690656    4.19992734423546   -0.94053901807708
C         2.42844282618749    2.54876749356678   -0.19732444964837
C         3.70037996741238    2.47428570240563    0.63154823467432
C         4.90506991477619    2.59005775481378    1.11669651640335
C         1.72612351341995    2.69334151953943   -3.68580727269751
C         0.65093583099508    2.81352496412116   -4.41352437932841
C         3.21348821093066   -0.19803182697929    0.11040263650041
C         4.40487136075935   -0.75983856500580    0.83373316583514
O         2.09752198945918   -0.16170085951866    0.65510526250784
H         2.83237544128627   -1.61662734019632   -4.21414669149665
H         4.41924753057129   -0.75265342466802   -3.71403092355491
H         3.02028066783137    0.11609248045246   -4.24267021382555
H         3.29317405097890   -1.63628234683482   -1.71919601576196
H         1.79698848105280   -0.74193292158012   -2.12696955065653
H         5.03917690657749    1.44660626897256   -1.00677168845757
H         1.42584371205614    1.24178658547611   -1.59513322317557
H         3.72855868806378    2.27025928866901   -3.11391540303419
H         2.60123131497866    4.70353281491189   -2.66513326884570
H         2.69057988006379    4.59414411446576   -0.12026052643628
H         0.21967295795074    3.36869077430274   -1.50432998470965
H         0.44895680771321    5.17768328475773   -1.39024909866659
H         0.14604478852349    4.24245330858253    0.02902704304810
H         1.62543156136460    2.21818687024970    0.46994106883198
H         5.73857624372988    2.60099030088099    1.78106606063710
H        -0.06912614028653    2.87762257355165   -5.19657229045854
H         4.18798602927092   -1.64391475772209    1.43076334448687
H         4.79000215351935    0.01754113622825    1.50137589913148
H         5.15437605844374   -0.93762847771007    0.05750908298173
