36
 energy: -50.520391373603 gnorm: 0.302839452015 xtb: 6.4.1 (79825abcba525fcdf90b791dcacef51065a7a4e7)
C         3.21625744488857   -0.79011561796018   -3.56995350832512
C         2.86249682150918   -0.83043101282488   -2.09053812862009
C         3.34461114071132    0.39009476212736   -1.21646508301282
O         4.69511182190617    0.66968309712356   -1.62276160167112
C         2.43422286031670    1.67202599618386   -1.38151605102460
C         2.66410267524758    2.47706086975248   -2.73235231618997
N         2.93801411902760    3.85466743885977   -2.30910444152112
C         2.33241269240316    4.11947430470077   -0.99559260117646
C         0.84872321368016    4.49047099574609   -0.95639169454890
C         2.53241159494187    2.76158838952391   -0.30127343633585
C         3.90704758855817    2.78266887989238    0.34705754770233
C         4.96830112720488    2.78325830556476    1.10454714021145
C         1.55066886300443    2.29055112460422   -3.75013650838031
C         0.32929676708708    2.45963882251332   -4.17405206191990
C         3.22395163744519   -0.18579582348437    0.23187267597971
C         4.40853242509755   -0.92602687764662    0.78599722615562
O         2.16231050933667   -0.11219896011806    0.87288992368669
H         2.82208761728346   -1.75070279499917   -3.94291918509794
H         4.29802315053680   -0.74762542394295   -3.73180582043732
H         2.74151285969273    0.02111672878307   -4.11585178274725
H         3.36600546371499   -1.68850874697005   -1.61925496687130
H         1.77207251989344   -0.89036337053964   -1.98451860208391
H         5.15687355228971    1.26732624665930   -1.01044181574714
H         1.40380164746543    1.29305176916549   -1.28191319290471
H         3.56995693550646    2.11583232817667   -3.21781197750726
H         2.85587425039420    4.58872895162516   -3.01007983695592
H         2.83661236625263    4.94056046598764   -0.47213624488488
H         0.23510982285484    3.66322901220673   -1.32791029171593
H         0.64915603567646    5.32886226834091   -1.63332184584740
H         0.51235220669638    4.76789151767012    0.04931236315198
H         1.82893209954141    2.60544649943546    0.52340239282562
H         5.82437516913748    2.88243720538459    1.73187479964001
H        -0.36014839897308    2.44694138691894   -4.98661956145508
H         4.58785991930890   -0.50453165978446    1.77354896258147
H         5.29029567359753   -0.71442081610173    0.17272062070544
H         4.20504088474506   -1.99956869774853    0.83060126870162
