36
 energy: -50.519194504528 gnorm: 0.312822361336 xtb: 6.4.1 (79825abcba525fcdf90b791dcacef51065a7a4e7)
C         3.00860108334750   -0.40168317095777   -3.64997761205282
C         2.96297967486744   -0.77331058388934   -2.17510353975515
C         3.42059598123069    0.39856122977230   -1.22461690940153
O         4.77891568650777    0.68434187111684   -1.59931088792160
C         2.47539246093715    1.64879209602085   -1.43176277235806
C         2.95734783075561    2.58335553769809   -2.62339806992316
N         2.92935271418060    3.93214768940766   -2.04725389218263
C         2.09899702163197    3.96114958344465   -0.83405257511491
C         0.59290746512655    4.14888111391553   -1.02630459480523
C         2.40130220343238    2.58583483829471   -0.21513921866774
C         3.74207944763704    2.61705707712008    0.50022299612254
C         4.83038691093562    2.49965325764954    1.20863890363661
C         1.93828439168325    2.59353732211406   -3.75114424573872
C         0.84885657650299    2.74440227224570   -4.45145248795912
C         3.25278299904642   -0.24799421632241    0.18878175057328
C         4.44608627882130   -0.87489491343147    0.85304860439964
O         2.15524527834432   -0.21030472900204    0.76963623755112
H         2.79165150228422   -1.31467995705247   -4.23012476588841
H         3.99548916177686    0.00636201502687   -3.89033084502111
H         2.29831603085176    0.38938588056680   -3.87623005686846
H         3.59850736629797   -1.64564154138108   -1.95814866632969
H         1.91869208462022   -1.01449819551910   -1.94026498518381
H         4.89957905738388    1.57258624463135   -1.22274875425659
H         1.50926416250653    1.14998058559823   -1.61367827972750
H         3.92307113158169    2.36654075499081   -3.07847930624573
H         2.64653756067232    4.62191906550349   -2.74093307711407
H         2.54867569079539    4.77056966915619   -0.24665614102886
H         0.19732275033667    3.30015918550648   -1.59380841145343
H         0.32072793932780    5.01869837444184   -1.63482546555062
H         0.10165266784415    4.21272285527823   -0.04847986197153
H         1.61964761535852    2.30894410589970    0.50019394180554
H         5.81196785050578    2.44324150196113    1.62041041097755
H         0.03684270972912    2.61429610600717   -5.12929292484761
H         4.09698352655632   -1.84314393127336    1.20758507086103
H         4.75279091639337   -0.36842393936071    1.77381521832526
H         5.18982098742484   -0.86745618772225    0.05136679859119
