36
 energy: -50.515691499199 gnorm: 0.302904558108 xtb: 6.4.1 (79825abcba525fcdf90b791dcacef51065a7a4e7)
C         2.84513843363481   -0.39460710189835   -3.73789855421965
C         3.18307646822449   -0.78774159657227   -2.30727459232630
C         3.49424751864913    0.40903696035411   -1.32900330422878
O         4.85000626190762    0.84142240515287   -1.53408775015074
C         2.47156748732570    1.59957255116154   -1.51912660596014
C         2.97760872102710    2.64305773270501   -2.60574771597494
N         2.95867151158072    3.88927742378969   -1.83209148518187
C         2.02932135040231    3.84749219656988   -0.69334156288229
C         0.53683273708210    4.05148154074577   -0.96050406724743
C         2.25535062639199    2.40008114811887   -0.22446542278495
C         3.48387561802135    2.44288307126044    0.66956806425134
C         4.54932842267761    2.71911586156316    1.36853561655531
C         1.96313316192985    2.55949936399451   -3.73458018512038
C         0.88401930659940    2.92312741461850   -4.36966503585236
C         3.32719357035055   -0.27061067362628    0.06887472695711
C         4.58494191650647   -0.78986919910429    0.70657946239035
O         2.17876202914653   -0.42709075995287    0.51611119354804
H         2.96672256459130   -1.28432019874559   -4.37885789346745
H         3.49402700084354    0.36449062045538   -4.18615395132940
H         1.83995379413726    0.01867814572614   -3.75476304534984
H         4.15150456850270   -1.30919732332926   -2.26082994127566
H         2.38474271219464   -1.37424291229239   -1.83553674177585
H         4.97514322487763    1.58463649986775   -0.91983185586882
H         1.46057329023035    1.26943566961982   -1.80931693562398
H         3.99358024993802    2.45023899957708   -2.94831429424543
H         3.03394995762747    4.73492420457893   -2.39438539704070
H         2.33659803259686    4.61198341863785    0.03021946364675
H         0.08206204178654    3.20460481455920   -1.48477516436227
H         0.41892414735229    4.99815920593939   -1.49981879459699
H         0.02083561307403    4.23157256599608   -0.01031332724625
H         1.40204218233084    2.00186160438175    0.33467658884173
H         5.36207128990278    2.61776416067953    2.05074970820866
H         0.31537959852677    3.23884393747438   -5.21390064174838
H         4.47435263243109   -1.14830616865754    1.72852267805190
H         5.42193190679442   -0.09491125862244    0.58462473318436
H         4.81601005266971   -1.61290487175688    0.02458960218937
