36
 energy: -50.519366003317 gnorm: 0.303411320532 xtb: 6.4.1 (79825abcba525fcdf90b791dcacef51065a7a4e7)
C         3.18151370198427   -0.13122964357702   -3.86934171207500
C         3.24325319572048   -0.68462968767253   -2.45322787932159
C         3.45043331315280    0.38424852812205   -1.31274692908246
O         4.80036790269330    0.87287105101421   -1.39035625399220
C         2.35991520766241    1.52469036900366   -1.41051691826675
C         2.73758733474252    2.54894296866716   -2.56548654838056
N         2.87014582813184    3.84599859353287   -1.89314658029555
C         2.07405640759864    3.89042699547106   -0.65764795134555
C         0.61287876634399    4.31113232219862   -0.82639817100080
C         2.24618270514635    2.43864903835019   -0.17947842496574
C         3.51024399444987    2.45030200165922    0.66456825170573
C         4.46749666892598    2.50674572360777    1.54804507601769
C         1.71424843332276    2.50019006204588   -3.68834272582772
C         1.05969626769435    2.84060562726358   -4.76338854142809
C         3.29379045215351   -0.33467190612945    0.06656715457441
C         4.55224370645324   -0.97568483127621    0.58001188792384
O         2.19672024059890   -0.44392055450900    0.63919544744839
H         3.05456922632862   -1.01219348536695   -4.52125334710766
H         4.12329615149973    0.35066173732579   -4.15049138956690
H         2.31026796127576    0.50972892562695   -3.97699038661368
H         4.15813138336268   -1.29372531722274   -2.39056545394443
H         2.43558349451953   -1.37084732451784   -2.16926981575116
H         4.84152283707471    1.51755808248375   -0.66370526540735
H         1.36547105977316    1.08127618449401   -1.58307050816012
H         3.71811953741468    2.19485620342766   -2.88156917876326
H         2.63065944039125    4.63032377770305   -2.49683527806751
H         2.57715082383514    4.62171170174581   -0.01381176901595
H         0.10473661258091    3.88349868994860   -1.69691398511310
H         0.70121200595697    5.39913013144184   -0.92345186542116
H         0.01659920503178    4.04642154817536    0.05446909511482
H         1.44687656932369    2.12664919474563    0.50105055659682
H         5.41916491176659    2.57192602512823    2.02377428667823
H         0.24903299308382    2.90533281240286   -5.45215353989656
H         5.22535221735051   -1.24842667956333   -0.23092079071952
H         4.19408002132793   -1.82890552652888    1.16492638323483
H         5.06178842197077   -0.23996302089656    1.20847665848334
