36
 energy: -50.512130085948 gnorm: 0.286906807190 xtb: 6.4.1 (79825abcba525fcdf90b791dcacef51065a7a4e7)
C         3.17228575817421   -0.09530002056615   -3.83834743600108
C         3.22119715938895   -0.73937408526988   -2.46058909382841
C         3.43647948597047    0.33687319919911   -1.32857038052006
O         4.77116419432902    0.84095471196896   -1.50638247265824
C         2.47720266350502    1.59092016319310   -1.40950577666678
C         2.85339635024309    2.60838743462589   -2.57093729414477
N         3.09189786546165    3.85541993412855   -1.83609507336925
C         2.17221090405906    3.83511313359329   -0.68894526989720
C         0.66918068644965    3.89569269606256   -0.96776425889711
C         2.49356783450019    2.43956057189957   -0.12761146966799
C         3.79599746735630    2.54863940950965    0.64839141854789
C         4.53556050132695    3.11891285975107    1.55827309494418
C         1.68383280274887    2.67682595822030   -3.53936007497974
C         0.91794928027441    3.04790667792847   -4.52716894522667
C         3.14090958635569   -0.47072037434438   -0.02307355134083
C         4.26293976655087   -1.01727888887717    0.81391492442918
O         1.94778519274149   -0.67809668072629    0.25414609139426
H         3.12385292421888   -0.83524037560565   -4.65525838692711
H         4.04899014278563    0.53351008529339   -4.02329581312457
H         2.26601341155693    0.46422991168668   -4.05533120428286
H         3.99903687926241   -1.50969317627232   -2.34439946438624
H         2.24871984283799   -1.22582144017209   -2.31391250770572
H         4.92237133192392    1.64621248633448   -0.98290079345098
H         1.46426523424757    1.17447858981476   -1.53537973452791
H         3.80039145291466    2.35058049228141   -3.04365807344896
H         2.97672059148719    4.65791649344797   -2.45228761403172
H         2.47108124537986    4.67442667248638   -0.04969909856702
H         0.43043949898831    3.00053816262849   -1.55135467446279
H         0.44945462591732    4.80202431769479   -1.54330302254909
H         0.08631300402566    3.86824245148381   -0.03983106823102
H         1.68291997306774    2.13507875344350    0.54283226456973
H         5.39929632190743    3.03684167126750    2.17751779545094
H        -0.00783999557309    3.06037779038921   -5.05491934656654
H         5.15069265032313   -1.32568384546387    0.26450052223721
H         3.89241536989300   -1.82881539076306    1.44835319348065
H         4.57609651266061   -0.32353297234635    1.59911541740445
