36
 energy: -50.521356919401 gnorm: 0.306987458083 xtb: 6.4.1 (79825abcba525fcdf90b791dcacef51065a7a4e7)
C         2.90593615020830   -0.71248391782338   -3.58793783991378
C         2.81376198296375   -0.81505997636217   -2.07254223396830
C         3.36284062427710    0.40312752198884   -1.23549210282159
O         4.72304661633238    0.75356380601167   -1.54230254491837
C         2.40722366082298    1.64958891987682   -1.41584321255806
C         2.77374491051980    2.52908761136939   -2.68778216602549
N         3.00015743078436    3.87528181493965   -2.15069313446374
C         2.30096943546472    4.00754219562940   -0.86390159631226
C         0.82123690156524    4.27801025292333   -1.14273557224749
C         2.46105219306387    2.61835080703614   -0.22323505674138
C         3.76053419770611    2.67999482297401    0.56286167019973
C         4.76176921574385    2.74719295157445    1.39536555276026
C         1.66294208771169    2.43702364166703   -3.72124560605890
C         0.72977335843767    2.76065351543829   -4.57242398659528
C         3.29956596812270   -0.17961132099688    0.21375000775504
C         4.53340003232816   -0.91852460145201    0.64951179167386
O         2.27726721032298   -0.08366893153007    0.91310813759564
H         2.76352263689493   -1.71900245198588   -4.01670327905607
H         3.90302887144747   -0.36058930549392   -3.87112490735371
H         2.19841720117111    0.00620507292283   -3.99338615647673
H         3.46500567815959   -1.66185284946661   -1.80655417982868
H         1.81787654765076   -1.09516531844296   -1.70701470509063
H         4.94482402467050    1.59277869916010   -1.10427298538268
H         1.36491017894166    1.29751807572340   -1.48611967728725
H         3.71210729121181    2.16179488049820   -3.10166760975367
H         2.83723532517732    4.63691382457163   -2.80669072463010
H         2.87275460059190    4.77705658632289   -0.33162753327417
H         0.37365983337393    3.48534799653379   -1.75120749140954
H         0.55298586025261    5.21181296461497   -1.64970232261967
H         0.35624210586428    4.19738524964799   -0.15337835424289
H         1.64433569097141    2.38475477991016    0.46796748267623
H         5.61997291547952    2.80856816983276    2.02461803671269
H        -0.05036816349117    2.68986088140255   -5.29500919996620
H         4.57859345656687   -0.88703911795944    1.73672898148855
H         5.45622380681913   -0.45054478717124    0.29204442787965
H         4.48024977786692   -1.94317379675925    0.27114762367692
