36
 energy: -50.516819763201 gnorm: 0.308260847043 xtb: 6.4.1 (79825abcba525fcdf90b791dcacef51065a7a4e7)
C         3.61284193078097   -0.36854482662752   -3.77846294364670
C         2.94206545590597   -0.59572869569246   -2.43165627480804
C         3.42432725732763    0.44814375694649   -1.35282590505280
O         4.81136877287243    0.78936405955060   -1.51648149463870
C         2.42586547568089    1.66900276640236   -1.46225052031007
C         2.94706695971820    2.78440859214186   -2.46719001914799
N         2.77274598683354    4.08429290815348   -1.81001493527862
C         1.97623749708867    3.86262972280986   -0.59402612347491
C         0.46422161369119    3.93732982588482   -0.81479205980238
C         2.34424271640975    2.44131084207619   -0.13537850601678
C         3.63211339745649    2.49461103721813    0.67019567728072
C         4.84536723521266    2.50457238783703    1.14765332144564
C         2.03440248566477    2.72328414828689   -3.68115575222795
C         0.94042697377061    2.83903398326118   -4.38105889938342
C         3.18871332750573   -0.30539821179351   -0.00354774145327
C         4.36190420006038   -0.93812274382259    0.69036185987811
O         2.01702616810772   -0.50196974618153    0.35964689518262
H         3.12646878418162   -1.03597863654312   -4.51001898895784
H         4.66532106965882   -0.63990616216841   -3.64858099092960
H         3.44267343542252    0.61337967739176   -4.21245859190115
H         3.23203288133712   -1.59472179187262   -2.07129831502343
H         1.86395157410306   -0.46602068983325   -2.58882969107114
H         4.90529882013668    1.55220047177992   -0.92100310362932
H         1.46079928312534    1.19166074066947   -1.69910895133992
H         3.98223497351040    2.58654051957370   -2.74287916077084
H         2.30509248709931    4.72379353377611   -2.44977968498533
H         2.22392215292454    4.64349688360303    0.13488069188102
H         0.13187294489772    3.16285795829234   -1.51380168165127
H         0.09156864041123    4.93037725343170   -1.09037867485534
H        -0.10352827337200    3.65360684090405    0.07891347813927
H         1.56398423217219    2.04028320032409    0.52015749386295
H         5.76070186993306    2.64625199747165    1.67522189772706
H         0.23695207490343    2.95128917157501   -5.17370235400624
H         3.98250969485156   -1.51771152172172    1.53013067390032
H         4.94014147120434   -0.09955555612768    1.09140859328495
H         4.92695032860779   -1.44610980954227   -0.09612551253803
