36
 energy: -50.518339987006 gnorm: 0.304565690838 xtb: 6.4.1 (79825abcba525fcdf90b791dcacef51065a7a4e7)
C         3.06072622359011   -0.37971668773594   -3.70196696083959
C         2.76271834697842   -0.79710870142114   -2.26934105219625
C         3.26159121163071    0.32159655467241   -1.27649389176198
O         4.66286512669721    0.48838541994089   -1.55165109753429
C         2.41970266884129    1.65668391322037   -1.36683638238084
C         2.85865674075339    2.63260469510452   -2.54181827371544
N         2.87679439722152    3.95602959739071   -1.90921756581180
C         2.08354099013726    3.91430406218816   -0.67180205682441
C         0.58904215320166    4.09349758845173   -0.94543069833749
C         2.52208858116422    2.54786270994809   -0.11822562010436
C         3.94928175323465    2.62482390777389    0.39907332940715
C         5.13893183803628    2.90157518375278    0.85535318852947
C         1.89491401087159    2.51740806522531   -3.71157682525246
C         1.06217469751650    2.65491642572293   -4.70539849032182
C         3.16123335023534   -0.28264083695010    0.16180942268397
C         4.39432610455043   -0.74675638460933    0.88451731003137
O         2.06063966871340   -0.34261956426968    0.73495652369465
H         2.95213173525833   -1.21723561898069   -4.41187558107644
H         4.11191555960781   -0.08136180701101   -3.76680503677154
H         2.39561445131907    0.40440049607272   -4.05448907626020
H         3.35025100418524   -1.69738620401509   -2.03220825856736
H         1.68301325190538   -0.95092898210524   -2.14920192756454
H         4.96451859269919    1.10823994929281   -0.86599644268389
H         1.34260416345538    1.45532067294884   -1.48775670334250
H         3.83964470311354    2.30315274869881   -2.88219028993074
H         2.55695827305045    4.71334676229815   -2.51016293703844
H         2.48256436017220    4.65694366796087    0.02939201399083
H         0.17966374056999    3.11001438708157   -1.19850552849846
H         0.45318468263937    4.73049747223188   -1.82675658075595
H         0.10931948762667    4.61293226166300   -0.10781381839635
H         1.93946728775654    2.11040572446330    0.69941594621142
H         6.06096098509781    3.18538198786508    1.30873510935779
H         0.24855344783830    2.36552933152225   -5.32992820165670
H         4.15949755829177   -1.42093052253827    1.70635657808426
H         4.82881573493111    0.16865967511869    1.29879251681735
H         5.07802281881578   -1.13360855446456    0.12373181336218
