36
 energy: -50.516659811690 gnorm: 0.312766211796 xtb: 6.4.1 (79825abcba525fcdf90b791dcacef51065a7a4e7)
C         3.12152113814885   -0.51570970615711   -3.57406474468661
C         2.94382856659042   -0.84778405839856   -2.09975346206668
C         3.35622350113610    0.36386680075370   -1.17890944961516
O         4.74028810210169    0.56549221955515   -1.51179221792710
C         2.40048994153750    1.59706442536745   -1.43423921159686
C         2.81408263938607    2.57758835285744   -2.61457745416387
N         2.97109285566870    3.91975195742796   -2.04369152996119
C         2.19631898727995    3.98297959392251   -0.79552613653937
C         0.70817689852363    4.29201000460364   -0.97000554270898
C         2.41117507440501    2.56492880272738   -0.23973691252102
C         3.83143007314287    2.64965340939702    0.29514540244661
C         5.07470916530545    2.66852317710319    0.68751125836265
C         1.73872791722031    2.62238547838318   -3.68789509927835
C         0.74832461384667    2.67285053488299   -4.53441701713626
C         3.13723501429933   -0.31548567328668    0.21192309628245
C         4.35637246496327   -0.74274401121246    0.97963517552635
O         1.98256885148869   -0.42130990078027    0.65795982586320
H         3.02997322948097   -1.38754563210425   -4.24393194830645
H         4.16828696120677   -0.20377336111790   -3.64614568257582
H         2.42064323170999    0.24858094091975   -3.89981808253632
H         3.47539071009346   -1.76493707528211   -1.80277165183871
H         1.86885110471338   -1.01335134738228   -1.95529545217427
H         5.08141605437331    1.34074277952904   -1.03434584494502
H         1.36170729372126    1.24002720300315   -1.52786122871194
H         3.82417894353839    2.29181010216351   -2.90572227094319
H         2.57165339349827    4.55641247518518   -2.73076596455480
H         2.68699593655784    4.70086364636068   -0.12748049512147
H         0.24039240289947    3.54548683224605   -1.62020365217274
H         0.57848834020004    5.27076271134262   -1.44559510580578
H         0.16807383604613    4.21907288820615   -0.01894449668143
H         1.84184058328701    2.21881484824661    0.62941053793361
H         6.05492174823320    2.83147334951166    1.07334770110166
H         0.02624509485644    3.03799018063986   -5.22798458400019
H         4.79273030898379    0.20092716391962    1.30236035782339
H         5.09350549783749   -1.19809575122069    0.31054517900859
H         4.08559354392215   -1.31151329874424    1.87354268417295
