36
 energy: -50.526636934186 gnorm: 0.303070686704 xtb: 6.4.1 (79825abcba525fcdf90b791dcacef51065a7a4e7)
C         3.42706836652767   -0.38969784813046   -3.77754967686842
C         3.08972687579074   -0.72646401848683   -2.33247838476283
C         3.40426920924105    0.42070074437797   -1.29749181714703
O         4.75899684289803    0.84896735549367   -1.51749029338871
C         2.34910250389177    1.59653110140573   -1.35616483719028
C         2.68656662359248    2.59184229093564   -2.54828819063100
N         2.88771497348287    3.89301865751650   -1.90141454885824
C         2.06642680349982    3.92122384211204   -0.68203793022586
C         0.56114973233440    4.16923647831502   -0.79666950679111
C         2.34600465160782    2.51553708756188   -0.12363502240877
C         3.71279417228799    2.63538749620754    0.53052387457510
C         4.83153468925079    2.50767963604406    1.18791285364062
C         1.57796240802438    2.67108238382736   -3.58516960600563
C         0.93399154001320    2.82896720173635   -4.70785331791333
C         3.26214421488784   -0.33039294617733    0.06616125364580
C         4.47997269591032   -0.91964714068667    0.72030263487948
O         2.10945600706202   -0.45766964684382    0.51170814246388
H         3.22828649415568   -1.32177186088726   -4.33335969408425
H         4.49249598158428   -0.15158340581248   -3.85745048347946
H         2.80554629581693    0.38469740902697   -4.21971205424040
H         3.62786232207179   -1.62466919955340   -1.99253153880234
H         2.01118336658338   -0.91501536365872   -2.26141874056790
H         4.90901837185501    1.66436015147920   -1.00958786002963
H         1.33832697593733    1.16743608961089   -1.45373717922569
H         3.61089194131963    2.32183566565695   -3.05764877468282
H         2.58599120678945    4.64598618572050   -2.51701380736856
H         2.46304894362458    4.71275905541403   -0.03506865591690
H         0.19134134163574    3.58260589616809   -1.64400832747518
H         0.31558700847899    5.21922292332762   -0.99208912374042
H         0.06036401752609    3.74116736136315    0.07941196938592
H         1.65906996363801    2.19344254972138    0.66613061019184
H         5.75610865458330    2.77813060710345    1.64426630570872
H         0.13239534071788    2.85822386650864   -5.40952942702657
H         4.20160772439070   -1.79451731235905    1.30527282378551
H         4.76513260408403   -0.16666109270883    1.46198153108047
H         5.25622954738178   -1.13208212370423   -0.02009390909359
