36
 energy: -50.518098520791 gnorm: 0.308938135699 xtb: 6.4.1 (79825abcba525fcdf90b791dcacef51065a7a4e7)
C         3.32846963408221   -0.51204081447758   -3.82401556592026
C         2.99095267323204   -0.79280527970387   -2.36706827999291
C         3.39889478371389    0.39882756838828   -1.41853495789505
O         4.76244210525679    0.78553349494591   -1.65998024934866
C         2.41828015682602    1.63709191506372   -1.48556267591656
C         2.86342218073039    2.74530946439899   -2.53407921708097
N         3.05566397427990    3.94057334097555   -1.70561470136416
C         2.05812267008777    3.84481182200218   -0.62954304361182
C         0.58739321071639    4.13037802570541   -0.93924699940005
C         2.24091958883331    2.39213876811518   -0.15809935988844
C         3.53206646421770    2.39321866701278    0.64398555454139
C         4.27801895444319    2.46006188756521    1.71128908183883
C         1.78950650913969    2.89647319856239   -3.59909564932674
C         0.87644843854865    3.02801171347093   -4.52054416950142
C         3.32075799333180   -0.24988662648432    0.00166062540777
C         4.62179053631222   -0.73202096156829    0.57879881077710
O         2.25975421821537   -0.57157281724404    0.56218759283534
H         3.22566390095964   -1.37248737090935   -4.50685059336688
H         4.36707013774092   -0.16647037288616   -3.83444124440182
H         2.72448199424873    0.26430493080803   -4.28658608224691
H         3.61121615649897   -1.64095986120532   -2.03868864454432
H         1.91104115216535   -0.93881774467287   -2.23928466977277
H         4.92359043959365    1.61144464686819   -1.17290865473998
H         1.43447828493392    1.21389669678423   -1.74700054300070
H         3.76554842350570    2.40009689335486   -3.03779103293205
H         2.91213563449815    4.77672921800286   -2.26882224760891
H         2.31086475100908    4.45760744790783    0.24396100778695
H         0.09757234177317    3.22143236310258   -1.30362326472908
H         0.40065922113350    4.89142728427644   -1.70533828500806
H         0.02099384404039    4.44822397457362   -0.05623286263179
H         1.46359707261379    2.02420297886273    0.51994701622958
H         5.20111574652111    2.42283061417462    2.24302716405540
H         0.24973713060236    3.19524300613121   -5.36613768557695
H         4.84730920380655   -1.68494748809300    0.10324926813660
H         4.60615200487950   -0.85031053130673    1.66698756222838
H         5.40635588735500   -0.01022385257339    0.33516689192280
