36
 energy: -50.515952260444 gnorm: 0.305634479842 xtb: 6.4.1 (79825abcba525fcdf90b791dcacef51065a7a4e7)
C         3.24959780738679   -0.58073746065466   -3.56207632789257
C         2.76491271164778   -0.78098753494948   -2.13364290134334
C         3.24170049384385    0.37446778662906   -1.17254066983829
O         4.64503990367093    0.57388396011371   -1.41331089148130
C         2.50151654476925    1.76422553546790   -1.31430619733065
C         2.71900329792773    2.51070094159371   -2.70036481305643
N         2.97225552034094    3.89273824678878   -2.27869870264347
C         2.36636406905259    4.10170420576706   -0.95528723543078
C         0.87723176813883    4.45093281024325   -0.98744477413515
C         2.68224218202188    2.80248578575576   -0.19490222869285
C         4.07387011987544    2.93377010382566    0.40220553912369
C         5.34573412178229    3.07594342207109    0.65160205746346
C         1.49962438233982    2.18356559491448   -3.54682976927223
C         0.40925579517286    2.02236974002924   -4.24336194430035
C         3.06950830758124   -0.34389960177056    0.20520716995939
C         4.25566454338335   -0.98535698700686    0.86837644723861
O         1.96612322362038   -0.34294537549894    0.77612043089290
H         3.03260293085160   -1.49480193632838   -4.14052280975583
H         4.31380765001133   -0.36184189143073   -3.69534587459241
H         2.65621152925077    0.22994561788197   -3.97701119432497
H         3.23920496061376   -1.67639946880505   -1.70328200171721
H         1.67178107773336   -0.85118896932082   -2.07045922368202
H         4.93299202094762    1.45857587779251   -1.13092720994540
H         1.42535452094569    1.52519382847339   -1.30729028407586
H         3.56845852573930    2.22906980022773   -3.32152404750885
H         2.50632951557641    4.49425904389082   -2.95548926861175
H         2.87962837264947    4.98124727592153   -0.54863000401547
H         0.25290115108686    3.67055085514389   -1.43476126917531
H         0.74685845329505    5.36620656829459   -1.57586483093814
H         0.56842646262106    4.64362045245347    0.04650832572270
H         1.93310660614287    2.61028940350628    0.58047532977107
H         6.23642548483015    3.27731224254119    1.20147360385830
H        -0.31768457032715    1.91574472111946   -5.01534031250996
H         4.44961738361738   -0.26714261750745    1.66312509990619
H         5.12284297677191   -1.12296918158453    0.21457510586846
H         3.94129606894319   -1.93340361009128    1.31365213023379
