36
 energy: -50.516752779379 gnorm: 0.302476994703 xtb: 6.4.1 (79825abcba525fcdf90b791dcacef51065a7a4e7)
C         3.26429053613100   -0.40878215272532   -3.76134729912777
C         3.00715261356690   -0.76689881297699   -2.30495644403934
C         3.39860550961242    0.37630665416271   -1.29205617078119
O         4.79372303647743    0.66157738505452   -1.49046553491158
C         2.45219047238483    1.63726020079137   -1.40906496153231
C         2.77115336521320    2.59226877872638   -2.63866073968014
N         2.93230857317985    3.92363049542636   -2.04412639785963
C         2.22691627922921    3.97181691282663   -0.75482856383942
C         0.75677776762786    4.35099735425104   -0.94304298860990
C         2.52377865710444    2.57203388874925   -0.19054758080287
C         3.85001817880389    2.65872115674232    0.54699941719170
C         4.93928715689846    2.76527847883727    1.25565201751922
C         1.64741719181258    2.55391694430267   -3.66147623938378
C         0.47953672977246    2.46631744977307   -4.23456121446486
C         3.09626708706244   -0.36384494274334    0.05131944139663
C         4.30038044511599   -0.75381618547837    0.86141889228029
O         1.95146428314586   -0.66517222152659    0.42818798954291
H         3.11508662818265   -1.22420885281919   -4.48937096702184
H         4.32759549463661   -0.15985591925551   -3.83642676486828
H         2.71007856869147    0.43669173104457   -4.16073216844385
H         3.54894806259572   -1.64360434570773   -1.91795351354963
H         1.96313681177148   -1.09772420534663   -2.23830253148694
H         5.17330828275575    1.34315710354775   -0.91020621807074
H         1.40594342829335    1.31091990317704   -1.52814137958387
H         3.67310489818698    2.26864628203800   -3.15681225358213
H         2.72208624046389    4.68895341739972   -2.68212888090648
H         2.59804283925431    4.74869779535463   -0.07576485324681
H         0.28043610930605    3.64998371644872   -1.63626392369275
H         0.69920226878846    5.34782334171232   -1.39468933872442
H         0.22487309954774    4.25368536499544    0.01045376195777
H         1.75210280171282    2.26002180937337    0.52115372142510
H         5.92862939045367    2.94580165948309    1.60899678431068
H        -0.22430703865059    2.51395237516808   -5.03337074127090
H         4.19045096044430   -1.66112786604718    1.45283754009847
H         4.46250280649039    0.09365121758142    1.53514516338535
H         5.24102549823883   -0.91877500807888    0.32862828313477
