36
 energy: -50.520861737115 gnorm: 0.308913085344 xtb: 6.4.1 (79825abcba525fcdf90b791dcacef51065a7a4e7)
C         3.50947896987776   -0.25665186067432   -3.85546169276906
C         3.01150566877305   -0.65542928816758   -2.47399836315955
C         3.39509787687422    0.38352519956264   -1.35170087260895
O         4.80911281304146    0.64204123690286   -1.38050723848625
C         2.49209691717605    1.68117108986360   -1.36173827858991
C         2.85922672607504    2.74747865673472   -2.48150984426390
N         2.69219236741782    4.03434261088243   -1.79737039728187
C         1.92906422030110    3.86473030697157   -0.55195632134405
C         0.40063162492305    3.81228477462645   -0.59261335284886
C         2.51078404401621    2.52294517958633   -0.07535632970238
C         3.89129803609903    2.79974340700415    0.49732632003889
C         5.14961011672929    2.90273003523092    0.82304761271335
C         1.98568743794933    2.63190555638099   -3.72004822640613
C         1.09774972793337    2.59598203942576   -4.67415562228673
C         3.00881852529111   -0.32571759046342   -0.01317411027966
C         4.11206875306916   -0.87610103714251    0.84597935725529
O         1.83844276817856   -0.50226500274841    0.36425548777408
H         3.35013620403682   -1.10188202502939   -4.54640078124203
H         4.56900061235150    0.01832027708252   -3.86024101367633
H         2.96980066844960    0.60201437424679   -4.24651782224411
H         3.40620786871428   -1.62204620178428   -2.12501687360272
H         1.92051503103256   -0.76433364877225   -2.51566911604482
H         5.02498509238499    1.25245052993336   -0.65515462956652
H         1.47305597860432    1.35401321813433   -1.62599829940518
H         3.87845069162809    2.59695882981054   -2.83542418628867
H         2.41577557746622    4.74765106991629   -2.46948985990420
H         2.25853423764442    4.68019593516798    0.10292662520022
H         0.00874406392901    3.13871454031553   -1.36177135909440
H         0.02303599867808    4.83350299381494   -0.71709751589130
H         0.04650953301484    3.51433060307779    0.40105113303657
H         1.93425150705713    2.01332778856005    0.70390887606724
H         6.19654008820532    2.97348339991136    1.01058641977690
H         0.40528027857231    2.67616584925732   -5.48026875846358
H         4.83879601216402   -0.20468337111814    1.30000667402153
H         4.73628687613435   -1.51400258754860    0.21208260213707
H         3.64790641284668   -1.53017029418745    1.58937501208048
