36
 energy: -50.517758627459 gnorm: 0.310970656769 xtb: 6.4.1 (79825abcba525fcdf90b791dcacef51065a7a4e7)
C         3.46799105543592   -0.57015895899285   -3.70293846578738
C         2.93329627671176   -0.78398513249341   -2.29445643229929
C         3.29212869117752    0.36963403832187   -1.28128163547695
O         4.66982881779338    0.64602912749697   -1.58566084302472
C         2.37532544642487    1.65382447886490   -1.37988716389251
C         2.65606642683649    2.57832210613187   -2.64170059006790
N         3.04754913274503    3.88060936956707   -2.09146857405620
C         2.34741534447286    4.03706310151670   -0.80790944338883
C         0.88577859459360    4.42896258249721   -1.03272613430931
C         2.47290703017540    2.63102309434435   -0.19697886322769
C         3.80818004988147    2.58042104119500    0.52751197508817
C         4.91942023686083    2.79102810869119    1.17623365914362
C         1.47650370012395    2.63927198359233   -3.59842534611871
C         0.37606179808136    2.32697672269915   -4.22416019827015
C         3.14003141756816   -0.23237026039768    0.15341282120567
C         4.33785570768166   -0.86582849011493    0.80316301535424
O         2.05367821884748   -0.28331203771740    0.75394854590088
H         3.58543900397041   -1.58724092680629   -4.11397523276688
H         4.46292270007857   -0.11441994654349   -3.72807020705502
H         2.70450890881729   -0.02409406752096   -4.25102004405882
H         3.49577955630372   -1.65725501155311   -1.92984918213866
H         1.85189446642090   -0.96784608599864   -2.31940542353512
H         4.96620450128430    1.54270387686253   -1.35441941839054
H         1.32545026140643    1.31855464045445   -1.40569990610148
H         3.45692733011249    2.13712361966889   -3.23389548140063
H         2.86633850231351    4.71960391728842   -2.63938337464138
H         2.93753633545840    4.74136364829824   -0.20947455427552
H         0.47372191271783    3.71666340589257   -1.75502519892554
H         0.85041500370352    5.44855612076229   -1.43290090803823
H         0.33370264767799    4.44740000011493   -0.08593129600221
H         1.72084507258523    2.40003329582558    0.56486130558362
H         5.87230237501208    2.86801699994300    1.64774989290482
H        -0.51512756761036    2.16132125996052   -4.78460784352658
H         5.25858246761783   -0.46524782023489    0.38260105867378
H         4.28217320468538   -1.91094014896335    0.48217574157201
H         4.22084732419020   -0.72979962600724    1.88191023106650
