36
 energy: -50.520208895406 gnorm: 0.297607654253 xtb: 6.4.1 (79825abcba525fcdf90b791dcacef51065a7a4e7)
C         2.88285120284880   -0.68729173920021   -3.54272007357907
C         2.77279056514043   -0.81391571259507   -2.03033956473611
C         3.39005161353243    0.33897670792878   -1.14945991922295
O         4.79206264084092    0.50228233596973   -1.42294656563150
C         2.53051871095926    1.64347055266384   -1.39214356462017
C         2.90311612213710    2.50584677506843   -2.67400273039964
N         2.89444827172687    3.88388372679977   -2.17110597507208
C         2.16162522668459    4.02548570325984   -0.90417724776505
C         0.65300147033996    4.20387672655359   -1.08512127161045
C         2.55326217033961    2.68433108060062   -0.26085957486908
C         3.95095784404741    2.86607997365985    0.30818852963321
C         5.16406395574960    2.75408943784535    0.77281914809265
C         1.86899855782751    2.42226697532977   -3.78486756588481
C         0.73581540294567    2.58703438569627   -4.40839982025461
C         3.18104735077301   -0.17569838412158    0.31181272388398
C         4.42950912967121   -0.74152523560802    0.92777607371053
O         2.04727580028376   -0.15213192320409    0.81916683759462
H         2.38413925606676   -1.55838258407672   -4.00063721313787
H         3.92594137586607   -0.63115884218905   -3.86987541701399
H         2.41208146318753    0.23123310507612   -3.88356201866187
H         3.35883767269952   -1.72719379016676   -1.84487229117804
H         1.75697632603761   -1.00544020739058   -1.66251218151945
H         5.18465164427253    1.29193880238208   -1.01349169624975
H         1.47147892617101    1.34170334984163   -1.44392548681758
H         3.89093722305901    2.26226324863040   -3.06336838727245
H         2.60461709770895    4.49809510093554   -2.92985630134352
H         2.56657933824293    4.90974696945309   -0.39771842476764
H         0.16245704354289    3.35403749581573   -1.57093626631660
H         0.43947218407522    5.12791566739203   -1.63422845149767
H         0.13249929357337    4.28729757310246   -0.12404546737459
H         1.84103259769828    2.39659613361778    0.51971172697362
H         5.98823467183362    3.13652114119537    1.33024883581677
H         0.03430510831411    2.65885030773610   -5.20745399567703
H         4.84517513235450    0.04423026923318    1.55617488352589
H         5.05823072454972   -1.00149226874995    0.07015258412844
H         4.09782716845264   -1.62007112649081    1.48816394597660
