36
 energy: -50.518192816029 gnorm: 0.303489135664 xtb: 6.4.1 (79825abcba525fcdf90b791dcacef51065a7a4e7)
C         3.33404512275147   -0.34240427641449   -3.73992729060726
C         2.98941413726874   -0.71097663296546   -2.30436967495789
C         3.38555846405522    0.38149853692498   -1.23868270327394
O         4.73174861640471    0.78069518544690   -1.54773392987514
C         2.39058620180803    1.60615893659684   -1.33683263066812
C         2.83047529680320    2.53634145680651   -2.54800666601223
N         2.89368099626166    3.90427217098392   -2.02194898423692
C         2.21120780301095    3.98168002060570   -0.72178457952518
C         0.71158222850710    4.26639258722047   -0.82460291865431
C         2.45332714169994    2.57618284122792   -0.14568674210641
C         3.83531234556346    2.53520296989646    0.48585035736680
C         5.02509526247515    2.93339618840061    0.84068648455798
C         1.71661896490312    2.38205829444744   -3.57071196467552
C         0.78720744959647    2.55071145621715   -4.46948620983518
C         3.09803889672474   -0.37810482861934    0.09706656672812
C         4.27202506359730   -0.86280719144755    0.90021519914973
O         1.91528909691605   -0.53053037697662    0.44530618021790
H         3.18071961876544   -1.22254453902970   -4.38726443465806
H         4.38734220865350   -0.04602144998209   -3.77060459231961
H         2.69989338250233    0.42034164951934   -4.18439943436433
H         3.52010237804539   -1.63988154700316   -2.04469332093209
H         1.90166589023427   -0.81538847253540   -2.20558152561445
H         4.92697707323410    1.53726356801410   -0.96909165532542
H         1.36024789153734    1.23808106519339   -1.47185742154014
H         3.77597617816920    2.30045807789526   -3.03495242657324
H         2.44578155687788    4.58342607065571   -2.63439967069586
H         2.75801437325605    4.68123781248091   -0.07833464330255
H         0.31957602493554    3.40902867455782   -1.38150059291947
H         0.51733248081590    5.27956229408171   -1.19435363508614
H         0.28708496807287    4.25842434832930    0.18598445317619
H         1.69043158434945    2.27602258028306    0.58043176679460
H         5.99284358565599    2.70025869746309    1.22193353465096
H        -0.00118876920729    2.51344768390245   -5.18558995738462
H         3.93893338530207   -1.72321516120697    1.47798941847689
H         4.43276733517598    0.02560861119236    1.51930407213094
H         5.20454699967437   -0.97737187873048    0.34060093709375
