36
 energy: -50.516981065785 gnorm: 0.295812670912 xtb: 6.4.1 (79825abcba525fcdf90b791dcacef51065a7a4e7)
C         2.84480497288397   -0.77847206010621   -3.50853716861101
C         2.93126102985803   -0.88400258593631   -1.99300741425110
C         3.39219240156653    0.39771378454222   -1.19873636683537
O         4.71584990672040    0.68701958276575   -1.67970575945292
C         2.40173355588023    1.61270418482407   -1.40412855223281
C         2.60264816792451    2.47271501675425   -2.72537764555762
N         2.76171343186670    3.85646731640464   -2.26505828839644
C         2.25184435788832    4.00279157522319   -0.89363134609412
C         0.77911265540733    4.40227202742477   -0.78414882770958
C         2.56273810156767    2.63345828040018   -0.26577449218982
C         3.94063380590819    2.59270068214717    0.37465022543214
C         5.14819836020556    2.57966997633799    0.86624758112895
C         1.57046513735783    2.34687940584371   -3.83405657400151
C         0.85567482447343    2.69930170158684   -4.86600529196284
C         3.25349433820256   -0.09639773106748    0.27791782775507
C         4.47189372104063   -0.65926968206043    0.95386589383549
O         2.20720200968928   -0.00849594336225    0.94195633329203
H         2.67614169697234   -1.78889065530194   -3.91818083623117
H         3.80554485136544   -0.43610999181731   -3.90601135789013
H         2.09422200956755   -0.11720219827586   -3.93378139449304
H         3.64664453508691   -1.71448309384852   -1.89075903361531
H         1.95076607279646   -1.21852007917214   -1.63164212746252
H         5.05330324966251    1.36179956710297   -1.06640813957760
H         1.40517251545189    1.14201838173411   -1.37900817123049
H         3.48922991123801    2.10810284666375   -3.24283282335055
H         2.39445090923290    4.52681048389546   -2.93790154512508
H         2.89057860172921    4.77298389727639   -0.44504611662023
H         0.17207025958610    3.54840238599912   -1.10239861352757
H         0.51923641085170    5.25092166444090   -1.42697037668199
H         0.56965307479707    4.64731234221853    0.26352964442360
H         1.93084441674033    2.46592412716769    0.61285887811471
H         5.86676600076675    2.71057457819514    1.64262619684359
H         0.07904374210067    2.68151732623123   -5.59558713657013
H         4.98837092838770    0.19574348029278    1.38662308690679
H         5.11984103080136   -1.18325029574185    0.24393607642803
H         4.14674736748261   -1.30073614526867    1.77769293607648
