36
 energy: -50.500713356960 gnorm: 0.311162896470 xtb: 6.4.1 (79825abcba525fcdf90b791dcacef51065a7a4e7)
C         1.11812424156552   -0.93897461343041   -2.62950170988788
C         2.42121421201791   -1.01836133646277   -1.84777539725293
C         3.27694277691974    0.28258805292761   -1.60002484416174
O         4.27904320768467    0.36614936637424   -2.62760006052008
C         2.50030695189072    1.65934618431606   -1.62777625338963
C         3.48242809198714    2.86864980520133   -1.94195343885731
N         2.92406311951218    4.01755180176329   -1.22069144197563
C         1.64418091255633    3.67674148341298   -0.58199042251109
C         0.38403235842105    3.89529245662790   -1.42149672431634
C         1.79003428538462    2.16166949478177   -0.36014248184640
C         2.69686570893532    1.96955382570194    0.84449437388968
C         3.46652007287997    2.23634452042518    1.86258318607973
C         3.40733583074614    3.24118869104083   -3.41368076027740
C         3.40930275726350    3.46179727633101   -4.69873826441603
C         4.08771888394390   -0.01341437618905   -0.29660028955141
C         5.34540137234782    0.74160434989243    0.02960382838322
O         3.72545864426893   -0.94412693873158    0.44227935048756
H         0.71726845250178   -1.96266457897870   -2.72210008086831
H         1.27944780619158   -0.59467641386145   -3.65597727273667
H         0.34106716213015   -0.28488898832589   -2.24241057147391
H         3.08799288198745   -1.71403827394104   -2.38009669041590
H         2.12730551118316   -1.33698755186741   -0.83983086033901
H         3.76732956949549    0.18847363000303   -3.43501398337155
H         1.76646808418095    1.64156856560237   -2.45025697320073
H         4.50536611533872    2.69574341547220   -1.60964297143729
H         2.97034914746551    4.90485151187807   -1.71820184464556
H         1.60542325117890    4.21992349427953    0.36977504653830
H         0.35733527226744    3.26296434412442   -2.31498717580950
H         0.43940340651313    4.93801086856362   -1.75411328758320
H        -0.48543870794079    3.73347586363848   -0.77389830603172
H         0.86974320537955    1.60920050460455   -0.14289548113620
H         3.95206191335319    1.91198563146429    2.75436773075670
H         3.60183630949134    3.59523207445040   -5.73839578793947
H         5.35239729678576    1.80964506366077   -0.18090763714448
H         6.08764490900283    0.27679922476293   -0.62722375485900
H         5.49028844521560    0.51174795167633    1.08887911837852
