36
 energy: -50.515348461464 gnorm: 0.305114989244 xtb: 6.4.1 (79825abcba525fcdf90b791dcacef51065a7a4e7)
C         3.15049218250195   -0.78291277614615   -3.54055478148166
C         2.70117046100465   -0.85578863681197   -2.08857652077783
C         3.23101171025943    0.33879146024827   -1.20632503199458
O         4.56678992580295    0.58918518945494   -1.67547118953688
C         2.43136552681487    1.69354033591268   -1.36322557839590
C         2.75429086431332    2.60053354365572   -2.62764916880203
N         2.53979411141793    4.00507428861911   -2.26265255139499
C         2.27351344933362    4.15543975992934   -0.82436400048311
C         0.80503678348623    4.46575670849633   -0.52807124189023
C         2.65310622018101    2.76613397176546   -0.28429773258474
C         4.12083234298907    2.81241126493842    0.10818158902935
C         5.32620029239094    2.70520142206598    0.59361342308200
C         1.90685905542658    2.28767830618555   -3.85010010519110
C         0.91976303558394    1.99834779585642   -4.65133297133429
C         3.07921026565832   -0.13232134389896    0.27654379894834
C         4.30671613071267   -0.66728220469098    0.95865368071162
O         1.96858824278709   -0.17251955182716    0.83179537435644
H         2.58980836979254   -1.54922976690532   -4.10233134145911
H         4.23100337647631   -0.94217104628588   -3.61370525305862
H         2.93228796970529    0.16210812957736   -4.03127636781927
H         3.14104590484655   -1.73611097242481   -1.59515140616234
H         1.61414064596247   -0.89285201363167   -1.94418239152658
H         5.06033926346730    1.22732529272110   -1.13277145018885
H         1.38474729335253    1.34927644540589   -1.40041038076017
H         3.80514613025842    2.46144972933525   -2.87882236741400
H         1.78166246072651    4.42483373164628   -2.79744053049086
H         2.98149293623253    4.93224360675483   -0.51171854415060
H         0.19070484723788    3.84750332635113   -1.19081990443980
H         0.46626807570289    5.48337982349660   -0.75310539495889
H         0.50939715960704    4.17997132350354    0.48803513967456
H         2.07340662023338    2.59364498851592    0.62869177097913
H         6.29108925900532    3.00864963455584    0.92998774710848
H         0.29902986066033    1.77793206386499   -5.48910920002524
H         5.01639862302822    0.15783317477015    0.98335935531449
H         4.72257312981206   -1.49955787308497    0.38178982208645
H         4.07544152409570   -0.99685679790721    1.97540488321603
