36
 energy: -50.521527889147 gnorm: 0.302456791971 xtb: 6.4.1 (79825abcba525fcdf90b791dcacef51065a7a4e7)
C         3.68292031726161   -0.51720742315143   -3.78039505706688
C         3.24341834211378   -0.73501819003205   -2.33996517400874
C         3.45524366834762    0.46062897699507   -1.33414265776535
O         4.75425851199127    1.05315228491659   -1.50318444352769
C         2.30879142319137    1.54305462367828   -1.44989356999602
C         2.66608001895224    2.55539165154997   -2.62173103361602
N         2.98938438249602    3.77369263099498   -1.87127578819785
C         2.17262221874185    3.88209926183040   -0.65335268834325
C         0.70714664779207    4.27353361982861   -0.85252650397395
C         2.20425666443286    2.41613118290091   -0.18873493198261
C         3.45264109295341    2.33574060379485    0.67467412804043
C         4.50803054867504    2.58995626682192    1.39687725821830
C         1.53764986130999    2.70792963500402   -3.62859887302211
C         0.59185490173451    3.16034744570955   -4.40373420054447
C         3.24111312375351   -0.36262357802301   -0.02254276911939
C         4.49851630170081   -0.76818565888508    0.69347699437584
O         2.07638778119187   -0.66959211541856    0.28173781787919
H         3.69214406567300   -1.51602033010640   -4.24889123590910
H         4.71258460263672   -0.14995160170007   -3.83637047551631
H         3.06312049503541    0.18436420625553   -4.33278141950407
H         3.82382678210625   -1.58118902896171   -1.94115805818903
H         2.16271465546738   -0.92453998049233   -2.33569750766944
H         4.76992172411904    1.83252752740171   -0.92209439337096
H         1.34733904125701    1.01036446689076   -1.53451360997329
H         3.56435774364026    2.18516061962878   -3.11443293215998
H         2.96654094575186    4.59235995611509   -2.47643837139224
H         2.68081884903196    4.57337725571350    0.02949228885160
H         0.22588065389209    3.53385667082251   -1.50070688996799
H         0.62518484210332    5.26422537745693   -1.31380030035955
H         0.15913319916180    4.33897170536145    0.09454654838656
H         1.30791438063136    2.10312553427860    0.35711474328214
H         5.32898741592831    2.66872285038573    2.07220299014398
H        -0.24008726947115    3.07209362380031   -5.06391996819865
H         5.24894422346566   -0.98641310468506   -0.06435525093293
H         4.32170207525441   -1.70537804932152    1.23087712088273
H         4.82118545034937   -0.03281019896939    1.43576933155597
