36
 energy: -50.514650024210 gnorm: 0.309944475894 xtb: 6.4.1 (79825abcba525fcdf90b791dcacef51065a7a4e7)
C         3.45901215718287   -0.32852092711705   -3.81279010322531
C         3.07684975859298   -0.61850304741120   -2.36873191848436
C         3.38811042060904    0.43301467804137   -1.23579399047565
O         4.76996651408202    0.81459467261744   -1.34519713407042
C         2.48918533264492    1.72618260206676   -1.37380398192436
C         2.96331593498404    2.74754110728771   -2.49528135163505
N         2.80263996051268    4.06748530529176   -1.87568739906081
C         1.95915868205834    3.95448984996237   -0.67653749654867
C         0.44325677732598    4.07451338403158   -0.84430370408866
C         2.28801057771465    2.56611782862194   -0.10189639977295
C         3.58233563810806    2.54156740333894    0.69467217704723
C         4.70303707203203    2.78652088900914    1.31441082801673
C         1.98569450239973    2.56626183225734   -3.64497678690437
C         1.13199469847835    2.76684301324233   -4.60986470286620
C         3.18588014382533   -0.36776852189460    0.09151160137426
C         4.35077832182310   -1.30192963270724    0.26057649047808
O         2.11595495724783   -0.34802314028223    0.72259931965510
H         3.10067751142204   -1.19868524456838   -4.38864712893754
H         4.54401061120133   -0.22317938888077   -3.91228956850241
H         3.01228074097148    0.54532432522207   -4.28002749640221
H         3.60619183931118   -1.52835529945832   -2.04640908422506
H         2.00353358957779   -0.78536401514994   -2.21378997233102
H         4.98292877590189    1.49593092536056   -0.68507234284712
H         1.50114674975701    1.37055948860513   -1.70939605427909
H         3.95443210962169    2.65375348273840   -2.93757276277523
H         2.38833258148810    4.77832240809280   -2.47570388692625
H         2.23187440929019    4.75223041502121    0.02463472201630
H         0.04902431188223    3.27617272825749   -1.48157109131814
H         0.23023740344786    5.07604641581984   -1.23483635184394
H         0.00688246306598    4.06885254551958    0.16122783158184
H         1.49722239974910    2.09020779613821    0.48760984908164
H         5.52261736309155    2.80504619347222    1.99572146187195
H         0.34426851504957    2.55582619597525   -5.29595592830341
H         5.09480126145190   -1.03801412396409   -0.48899236605305
H         4.04869668089111   -2.35305027453627    0.21278710571696
H         4.68489952839043   -1.25324521376324    1.30071264373764
