36
 energy: -50.514657589212 gnorm: 0.309464184926 xtb: 6.4.1 (79825abcba525fcdf90b791dcacef51065a7a4e7)
C         2.88933236950711   -0.60013900508208   -3.55634722756953
C         2.94281790471325   -0.89651111638617   -2.06478943421965
C         3.34144271732127    0.36095662519485   -1.20107986737319
O         4.69505681179235    0.65673526130001   -1.58493202328761
C         2.37109968360981    1.59366233484965   -1.39670033776011
C         2.83216636073116    2.55689575693236   -2.57368095967246
N         2.91998168913082    3.88899817472416   -1.96560388779269
C         2.11719567267312    3.96895176487353   -0.73624179014423
C         0.68193005968398    4.38136573421036   -1.06856251735661
C         2.33936527903205    2.54773524193652   -0.19152434522966
C         3.65458326958221    2.60818993467320    0.56804688627954
C         4.90987208616335    2.77010454949846    0.88122983936242
C         1.81815858550103    2.63851673624455   -3.70307532278923
C         0.84728260887718    2.68233483614399   -4.57228451603619
C         3.30710514523314   -0.24461806219922    0.23975016444772
C         4.62068161973353   -0.83834552615566    0.66428781515354
O         2.25618272402876   -0.16811362714053    0.89786157547777
H         2.96687111216049   -1.54548421130242   -4.11982851143313
H         3.75997054733471   -0.02769529573782   -3.89178126557560
H         2.01554799214148   -0.03513564777547   -3.87060402789515
H         3.65194096291340   -1.73504435062080   -1.98776562831869
H         1.97822389096387   -1.20827903210483   -1.64500813109178
H         4.94486443589969    1.36167972031985   -0.96365413215053
H         1.34788621228144    1.23414505539082   -1.59441625216698
H         3.75927934725179    2.20627782440714   -3.02562968664461
H         2.67863643810852    4.59518215757187   -2.65843606757716
H         2.56890516635442    4.76237232656396   -0.12891263506147
H         0.34391103877243    3.88893025645842   -1.98623740694250
H         0.62214619090896    5.47282272289793   -1.14672226076757
H        -0.04733046299556    4.13489858493982   -0.28818998659947
H         1.47709906097295    2.31207999225904    0.44118213309099
H         5.91595749117370    2.69056976548140    1.22431233522612
H         0.26919288067793    2.59852176284461   -5.46365953173541
H         4.68874532948475   -0.62437885979571    1.72949230173918
H         5.53200349090340   -0.48143271185726    0.17388244199591
H         4.65970779242582   -1.92310555214471    0.53138555752533
