36
 energy: -50.522734117063 gnorm: 0.310661428752 xtb: 6.4.1 (79825abcba525fcdf90b791dcacef51065a7a4e7)
C         3.42631200127808   -0.44238398741266   -3.75440745938992
C         3.12177636506080   -0.72950977503451   -2.29144518969051
C         3.40941829819982    0.45270698821521   -1.28857595043100
O         4.73869773717473    0.89746376896258   -1.60842929183043
C         2.34460422693055    1.61012801643679   -1.44964698867026
C         2.72546307368447    2.68166665994090   -2.55979830263290
N         2.83717120837840    4.00958881221941   -1.94652011494058
C         2.07883061641032    3.92513929496518   -0.68954877758915
C         0.58734089800554    4.26400762160115   -0.72325933057995
C         2.25554911930942    2.48228972555417   -0.18666856916130
C         3.51741154500236    2.32837086597706    0.64664635866207
C         4.64101721869289    2.39201744138170    1.30506059004132
C         1.68298004156903    2.69712710352645   -3.66587038685224
C         0.87379137239626    2.82983580600078   -4.67959958383222
C         3.32595146769806   -0.27115615492415    0.09451709098230
C         4.58286165385907   -0.89879484573739    0.62787823967328
O         2.19982631273292   -0.44845166697663    0.58828821396300
H         3.44212903155069   -1.44008777425309   -4.22508563889032
H         4.41928241352707    0.00797751301299   -3.85137605434500
H         2.69960227558219    0.17134780756699   -4.28044122751324
H         3.69432456685533   -1.61538626844828   -1.97626657541811
H         2.04560996461175   -0.92690135985392   -2.20922825101582
H         4.98623761699388    1.47355429585705   -0.86534082596365
H         1.35176813758394    1.16541903617491   -1.62802994151001
H         3.68133432098041    2.44159194983235   -3.02391397783549
H         2.51450751910841    4.71377496191629   -2.60755701264869
H         2.51794332514144    4.65368478637052    0.00241064889554
H         0.09437644980494    3.48714680311876   -1.31685016910894
H         0.44845963473570    5.20794764381005   -1.26237957979968
H         0.18223002427437    4.25753300709922    0.29526485309128
H         1.38037063645780    2.21068930009556    0.41303947859358
H         5.42879535966278    2.49408200930769    2.01585425750836
H         0.21427196682104    2.77348398173522   -5.51483631421964
H         4.77331742798972   -0.44020233038381    1.59663749732817
H         5.39558181261637   -0.62249108041285   -0.05148463597643
H         4.50369599550185   -1.97655438241218    0.79538209623647
