36
 energy: -50.517387381801 gnorm: 0.310681725174 xtb: 6.4.1 (79825abcba525fcdf90b791dcacef51065a7a4e7)
C         2.95287413374134   -0.44954445183864   -3.71098922700586
C         2.93514795548683   -0.80990927530347   -2.23272512980171
C         3.36740697487397    0.37327615389433   -1.28438689011979
O         4.74603976078033    0.64217711255367   -1.59124597738735
C         2.49080788686428    1.68191591684200   -1.42015255318486
C         2.98112854000063    2.66403052618385   -2.56937883348636
N         2.97090899506929    4.00680767517628   -1.97877643178792
C         2.07681839604091    3.98082169784557   -0.81167924220461
C         0.58908233813744    4.05279132281967   -1.16092345489585
C         2.31580583458881    2.59260417585433   -0.19388483934101
C         3.54343067485119    2.48651828413327    0.69610650083381
C         4.67154599171067    2.61703097714585    1.33670946213729
C         1.95775520096906    2.55913698940360   -3.68835593895353
C         0.90112206309497    2.79821179310780   -4.41390020839055
C         3.33600453142511   -0.20294624787535    0.16849732513237
C         4.56364272863869   -0.87646470332710    0.71393751068418
O         2.28493932716798   -0.17639892159771    0.83028177369634
H         2.82886998675145   -1.39948811434253   -4.25819209673139
H         3.89893525294463    0.04058610015292   -3.96190560364821
H         2.14976154503779    0.23058593070718   -3.98286805767127
H         3.62978518254321   -1.65283858361852   -2.09533713199542
H         1.96500077591240   -1.21665663503856   -1.92091075190422
H         4.88655000689321    1.47955212216498   -1.11754066686982
H         1.47407235199223    1.34625515286992   -1.68262306980101
H         3.97930496286220    2.43611504313635   -2.94143721027472
H         2.87022281190343    4.85730242256390   -2.52966729720166
H         2.36939400629188    4.75293027528134   -0.09011551788534
H         0.19557250675623    3.12231746481480   -1.58311437388275
H         0.30724414246595    4.82402516559890   -1.88668305933170
H         0.01091113280329    4.31335520491865   -0.26684696300458
H         1.47462217020990    2.26453593442917    0.42590155790500
H         5.63205895769122    2.53779314152229    1.79209437110115
H         0.16887183683413    2.76797485632486   -5.18762957315487
H         5.02525055796471   -0.19562865442183    1.42699815474620
H         5.29786383667951   -1.10741251799776   -0.06450594251918
H         4.44334436364386   -1.86049476199045    1.17556886030280
