36
 energy: -50.505526505160 gnorm: 0.304431507359 xtb: 6.4.1 (79825abcba525fcdf90b791dcacef51065a7a4e7)
C         1.43351146239129   -1.03769863330412   -2.99231866261010
C         2.07180975048314   -0.85489092229628   -1.62315891706273
C         3.23329017800240    0.20946913658938   -1.55818242007080
O         3.99581410816197    0.12075170886773   -2.77382425119847
C         2.47803595987067    1.59807533746178   -1.53061037719750
C         3.37951180464509    2.83422285888478   -1.96068605441048
N         2.82130319867006    3.93244680292054   -1.16427321285136
C         1.53971583023873    3.56812566390075   -0.54218555450616
C         0.31659559835920    3.80976260040118   -1.42880735932115
C         1.82841752778577    2.09052915206161   -0.22707806578716
C         2.80344851608822    2.12483587290396    0.93848583699211
C         3.48939852523729    2.45142013138573    1.99813919016846
C         3.51907732440467    3.10029397320911   -3.45069712434310
C         3.71487746367929    3.81157733568134   -4.52577065433155
C         4.12551565277442   -0.02748148521759   -0.29656479928759
C         5.54186760943120    0.46665951116586   -0.38600452672131
O         3.68683262373461   -0.74019238900388    0.62158652256053
H         0.70765276495802   -1.83813567552062   -2.76953924874117
H         2.09361563795056   -1.47527053128551   -3.74797198221395
H         0.92907107023736   -0.13171338319602   -3.31822644815886
H         2.47499362793323   -1.82124368251124   -1.28326001085341
H         1.26549611199385   -0.59373026376822   -0.92637300498571
H         3.84321510833039    0.93086717244722   -3.28934654319256
H         1.67854423962221    1.51363546859304   -2.28492660466367
H         4.36468769842406    2.77852131724973   -1.49910737691104
H         2.80869173223862    4.81874872140336   -1.66554123764165
H         1.37279178242379    4.12040806826677    0.39029869260050
H         0.33520533228467    3.21081120255951   -2.34520665200998
H         0.28085494694394    4.87610111492546   -1.67901965849023
H        -0.53142564206194    3.57152460887009   -0.77638809777075
H         0.91051650749323    1.55508631146836    0.03770976526353
H         3.98685118856280    2.59114535643049    2.93047868407167
H         3.94050586103412    4.25932251837240   -5.46618431726809
H         5.60851261750399    1.46170520509616   -0.82248763392172
H         6.04056135758568   -0.22760300291000   -1.06988744990914
H         6.03496490572633    0.50763040400965    0.58922201320858
