36
 energy: -50.512580277495 gnorm: 0.312406874823 xtb: 6.4.1 (79825abcba525fcdf90b791dcacef51065a7a4e7)
C         3.51980627487718   -0.73380713097488   -3.62318670645656
C         2.87739163916587   -0.85209326686404   -2.24886738444005
C         3.28907374431878    0.30339851625443   -1.25817185072130
O         4.66753561683323    0.52067183896243   -1.60419752483328
C         2.45659075874956    1.64195396848098   -1.37915830135507
C         2.68217492314758    2.53347910267226   -2.67529842746466
N         2.86290977372893    3.91389413181180   -2.21296155446292
C         2.31871321528625    4.03984599033857   -0.85275003877042
C         0.82132990965950    4.34368632686695   -0.93042893561589
C         2.66758741612024    2.66708191692886   -0.25296807267665
C         4.05296377700626    2.75965133476285    0.36555013547291
C         5.29372199994929    2.78254622443914    0.76560605420440
C         1.36927060796226    2.52998227931226   -3.44124585529109
C         0.38269128404039    2.26386250760725   -4.25111396759210
C         3.06476669085127   -0.11998580278137    0.22988830083233
C         4.20178648950087   -0.77993683484862    0.95781569299932
O         1.95935912640223    0.04308966620289    0.77291869101947
H         3.51832715667165   -1.73876124864414   -4.07845147066088
H         4.54464984060941   -0.36949123071413   -3.49994620662212
H         2.92002317523693   -0.07577800627732   -4.24667942717751
H         3.13287942415193   -1.83147692549878   -1.81590110275494
H         1.78317431219505   -0.85400079177883   -2.32974991502050
H         4.94191948826373    1.27494915360323   -1.05545716703222
H         1.40512286134913    1.31291932674665   -1.34092820789301
H         3.52328035900039    2.18064047314562   -3.27092887595987
H         2.56504807817480    4.59679362393545   -2.90714198504399
H         2.86810006490095    4.88977106262162   -0.43060336704490
H         0.32723900975966    3.68371318079019   -1.65097483264341
H         0.53083414533477    5.38586625528182   -1.10488414148914
H         0.40065602423237    4.06591496028042    0.04292855524434
H         1.94863889700666    2.61443731610367    0.57146839094070
H         6.32785662746293    2.96006638739933    0.95346601013126
H        -0.52384633904463    2.42088616328634   -4.78897539543060
H         4.90495566191914   -0.01600839180747    1.28498758665164
H         4.72834230731172   -1.44444142824414    0.26530983539116
H         3.80815813110395   -1.31809615186858    1.82460957511043
