36
 energy: -50.519073689812 gnorm: 0.312224032860 xtb: 6.4.1 (79825abcba525fcdf90b791dcacef51065a7a4e7)
C         3.18309110996196   -0.40029354465204   -3.77860610330860
C         2.96542163917295   -0.80871814078243   -2.32903681533685
C         3.42818331879146    0.30836402047210   -1.31705849063816
O         4.77745462663713    0.73223253182542   -1.57571077301151
C         2.47938070617048    1.56937146168132   -1.41208572089821
C         2.83940108566682    2.55148417128178   -2.60854903124850
N         2.91641478516932    3.90858179350547   -2.05689603123257
C         2.20838403759566    3.95401911646564   -0.76894532283168
C         0.72288206238332    4.28692478334090   -0.92049535838855
C         2.49345948697617    2.54437741851029   -0.22344090072670
C         3.84501572887436    2.53486404395877    0.47197750398700
C         4.89226760716343    2.65688002947477    1.23906647270623
C         1.71977321077611    2.45544027646502   -3.63207938256038
C         0.63801765433775    2.63550474059607   -4.33736409637248
C         3.17716797591170   -0.26625509855671    0.11496633541861
C         4.34353386315630   -0.64014214473116    0.98561365296282
O         1.99650793494783   -0.52187209799209    0.40497204252174
H         2.94705087539779   -1.18349240549183   -4.51893408494537
H         4.23478675193618   -0.12290942044044   -3.90194690379768
H         2.54127763934691    0.42433820906969   -4.07784381278973
H         3.54235414399182   -1.69491510858219   -2.02288328445149
H         1.93650275324104   -1.13076855931925   -2.12540324791535
H         5.08512595164073    1.57310948571627   -1.19676348345376
H         1.43079001537656    1.24802306138035   -1.52390179479999
H         3.78499681962139    2.23473595967226   -3.04701037901557
H         2.56486182342795    4.61827725766789   -2.69697621015907
H         2.64667252382403    4.72224590490517   -0.12076544722076
H         0.27901181879849    3.54522927505584   -1.59261420164880
H         0.65494155574865    5.30204126003692   -1.32778400243472
H         0.26995171135800    4.16612111466280    0.07036730788979
H         1.72848808962255    2.26982585865402    0.51058505857601
H         5.66062764672022    2.77292277178181    1.96872127379435
H        -0.25073393857839    2.63775777410957   -4.92547744776620
H         4.12801737168658   -1.47877186541404    1.64540742825936
H         4.72061225931306    0.21911534895565    1.54942229281931
H         5.16025065544885   -0.95930218834854    0.33216058375481
