36
 energy: -50.521521826521 gnorm: 0.308639222166 xtb: 6.4.1 (79825abcba525fcdf90b791dcacef51065a7a4e7)
C         3.08132141549021   -0.50437197643912   -3.64323031346187
C         3.10824413676895   -0.83514805811927   -2.15820366999450
C         3.42466942941195    0.39055162732768   -1.21817367169187
O         4.73960238782494    0.89912448959190   -1.49996003975493
C         2.35727581560397    1.53846001502342   -1.42402205833125
C         2.73464541072442    2.47829122262450   -2.64876447750770
N         3.05512555256895    3.77496329088205   -2.04221676214527
C         2.24997688386425    3.99267225524634   -0.83121405317295
C         0.88544820590900    4.56121645345165   -1.22533169143086
C         2.24347667032641    2.55733623159601   -0.27831163755191
C         3.43825454919712    2.41967131026939    0.65118058447899
C         4.58375594581216    2.53889554661755    1.26245961883439
C         1.62303954558988    2.58378912926499   -3.68007819065513
C         0.53483094553390    2.64998363995779   -4.39524610056592
C         3.34327449812692   -0.22176149345479    0.21791074698828
C         4.59278192953007   -0.86132160127194    0.75449412792987
O         2.28516000825970   -0.38555867933519    0.84796289099312
H         2.80250115954672   -1.44117693451059   -4.15494967931523
H         3.99697689684929   -0.08350075261546   -4.07061899123342
H         2.29247009190533    0.21549542843410   -3.84568963801131
H         3.89543570303532   -1.57433522364250   -1.94405899925686
H         2.14166052173592   -1.20646743972511   -1.79530530780529
H         4.87320768032947    1.67082581002661   -0.92379734251067
H         1.40274531384802    1.11765207047193   -1.78053610269202
H         3.62706956195432    2.12503026472140   -3.16404586448932
H         3.02574065719053    4.53499116042307   -2.71930903064664
H         2.81775249493120    4.63077275957801   -0.14356228069755
H         0.30685880070681    3.82836192368734   -1.79720169469245
H         1.07635939958285    5.44631720953317   -1.84267356081350
H         0.27613708251845    4.85964519113149   -0.36438541161745
H         1.37134694386952    2.42031521786145    0.36973843978927
H         5.39516496067989    2.58767454799937    1.95200675076547
H        -0.20037046065954    2.72469456048715   -5.16313864156286
H         4.59663600990649   -1.88129058968694    0.37406882617144
H         4.65484420458752   -0.98594267652872    1.84031621446441
H         5.43109227525729   -0.28944491551415    0.34696107257019
