36
 energy: -50.516258024242 gnorm: 0.306827588554 xtb: 6.4.1 (79825abcba525fcdf90b791dcacef51065a7a4e7)
C         3.37242362893013   -0.45725173603582   -3.69915816727714
C         3.02825677437072   -0.81526456144001   -2.26081961945654
C         3.33453022153095    0.39197853709768   -1.29392678333138
O         4.74653317452187    0.61619918630518   -1.44581937873640
C         2.37083174503981    1.64519357369080   -1.30548829493427
C         2.72690916814927    2.58456925277289   -2.53693733312539
N         2.90237479460388    3.92259060597409   -1.96171842160015
C         2.18022919801066    4.05451861076236   -0.68763448571939
C         0.68481633616170    4.33251305111229   -0.85185750012151
C         2.47691139759533    2.64663630625881   -0.14377795644085
C         3.88685198374682    2.76699446964448    0.41118423343377
C         5.07626283515414    2.94962256038949    0.91317896132898
C         1.60672430092100    2.50896602088081   -3.56157163016040
C         0.90632352135394    2.35827670664088   -4.65096427405727
C         3.09476909191564   -0.30377204453892    0.08532544753981
C         4.19346714989811   -1.09985229688834    0.73134905475620
O         1.96621310456503   -0.27967641928442    0.60415325859693
H         3.39746998374358   -1.37568214108224   -4.30994392773307
H         4.34633347430768    0.03561642450533   -3.78161555437814
H         2.58554085986704    0.19933285278318   -4.06137006162364
H         3.62611011830074   -1.71444298532415   -2.04640016234459
H         1.96285221972742   -1.05685275280906   -2.15881243013839
H         5.00735993572919    1.33347313620099   -0.84347044710723
H         1.32871777791192    1.31035633565375   -1.43660874749539
H         3.65589706319011    2.33638209514813   -3.04890775912650
H         2.67822173927981    4.62287793813192   -2.66621316232446
H         2.60736893492386    4.87876035426966   -0.10403912070098
H         0.22073685119265    3.58963370528658   -1.50884857466421
H         0.61502351346981    5.28635375331680   -1.38690730564963
H         0.24835463003476    4.36677872123281    0.15306801887030
H         1.79507423548492    2.38977640726513    0.67382524210468
H         6.04335271414766    3.27909140011223    1.21719650137372
H        -0.07221547605193    2.33682652685343   -5.07258392504657
H         3.78825747232558   -1.98812608981202    1.21285688254887
H         4.54097674646512   -0.42391566682435    1.51921865427926
H         4.97418066251951   -1.34074973883426    0.00447547257134
