36
 energy: -50.516894338012 gnorm: 0.302694432302 xtb: 6.4.1 (79825abcba525fcdf90b791dcacef51065a7a4e7)
C         2.84356379007863   -0.59870916810696   -3.63252246602391
C         3.00985428681215   -0.94034897891477   -2.15906683624128
C         3.41547126111375    0.33674288698853   -1.32802392973061
O         4.76522826882429    0.61497874591018   -1.73770603044416
C         2.46657496840529    1.59612073447681   -1.44186423305892
C         2.88801831447005    2.61744029503909   -2.58421985981598
N         3.05411282851970    3.92426954544261   -1.93879283831405
C         2.08933258133666    3.92640688932975   -0.82911556711426
C         0.59089059101071    4.12768149471556   -1.06293146544822
C         2.35668884310117    2.53533797213610   -0.22963182836897
C         3.70426053398663    2.54833632642372    0.47342095894429
C         4.65053088914668    2.87037114141369    1.31062819343912
C         1.80973269986420    2.67710627854814   -3.65386723770460
C         0.94133105356349    3.10256499417909   -4.52845760018900
C         3.33630175292524   -0.17691367983104    0.14635053948234
C         4.52160583778394   -0.81378278143869    0.81543920912608
O         2.26249257072956   -0.22761244251665    0.76905831534270
H         2.61851381563735   -1.52735185397368   -4.18404421894613
H         3.73863166342559   -0.09664183107537   -4.01331180721047
H         2.00009786243951    0.07691135894453   -3.74908748284344
H         3.87586692428995   -1.60616657598058   -2.02255599485520
H         2.08021783060389   -1.37866068665505   -1.77498860497806
H         5.07928486976041    1.13753990535597   -0.98031904546849
H         1.44148813836756    1.25809471921292   -1.66601927769171
H         3.83598846447581    2.38660001989380   -3.06877578900066
H         2.93712748108988    4.72328379661210   -2.55915598369246
H         2.41988354158106    4.70687731757861   -0.13340848931067
H         0.12155351094178    3.34595350281787   -1.66914991974281
H         0.37069525696277    5.07979360678753   -1.55887295089392
H         0.05926499775847    3.99714970727221   -0.11325576402510
H         1.69390000758620    2.19786498046430    0.57421944583814
H         5.66827037628003    2.78542412442979    1.61596340112780
H         0.20209965208474    3.05010108833244   -5.29432068961214
H         4.26205932201506   -1.85607515052885    0.99246244222050
H         4.70249222026964   -0.33797772031357    1.78460452293677
H         5.39728443834034   -0.82281176047591    0.16046147517826
