36
 energy: -50.518159621115 gnorm: 0.308563910263 xtb: 6.4.1 (79825abcba525fcdf90b791dcacef51065a7a4e7)
C         3.28146225134248   -0.16085697052524   -3.92749727522348
C         3.25394475940129   -0.63289605548455   -2.48116963354603
C         3.40349750534113    0.43508200548903   -1.33087494129954
O         4.72822574970988    0.98217705505465   -1.44436798365356
C         2.36284156713225    1.62315824543285   -1.40092062105942
C         2.82919955166901    2.57748471215341   -2.58306093080718
N         2.95962711774829    3.86225923381138   -1.88713769647801
C         2.11695750591375    3.93304766719727   -0.68418880897192
C         0.63416506276642    4.25399809743831   -0.88123475042481
C         2.31455701851232    2.50663482461102   -0.14360241920916
C         3.61517381453873    2.43048447862042    0.63933986266580
C         4.66698687599118    2.37754652663312    1.40806396380922
C         1.77929230897881    2.42568572223199   -3.67166424005104
C         0.82318985052917    2.53033935724144   -4.55198264143805
C         3.20295032045509   -0.29383655914537    0.03746327501621
C         4.39509115640235   -0.84994428200199    0.76394251269270
O         2.06337620013055   -0.50174739586232    0.48640134608445
H         3.29821588475764   -1.04253961926152   -4.59048746412168
H         4.22834741773050    0.34528554394444   -4.14067997314396
H         2.42519138519859    0.46861654453269   -4.15563881397406
H         4.00016455159461   -1.43460740745415   -2.37007919729657
H         2.28195411107398   -1.08875112411726   -2.25470215764771
H         4.83276653789600    1.55444597100136   -0.66531967560041
H         1.39298412392621    1.14400215557367   -1.61327889672072
H         3.82491578445082    2.32178455429269   -2.94347135072886
H         2.85158425864374    4.71540991854696   -2.43250033693805
H         2.49313064539809    4.64678714834055    0.05842553842439
H         0.10719209090389    3.50652783302071   -1.48328495382413
H         0.50186846353352    5.26639742563153   -1.27936364944808
H         0.15032347719793    4.18451685692240    0.09989619330652
H         1.56501245457076    2.29678459461453    0.62678691551030
H         5.56568769833247    2.52126321740752    1.96297075384546
H         0.14800341280088    2.49417406636356   -5.37574055500887
H         5.32257682234811   -0.75364890802964    0.20218408430464
H         4.16195753218118   -1.88011230563044    1.05168249854656
H         4.46253801680211   -0.34249648543598    1.73029546086366
