36
 energy: -50.510877297141 gnorm: 0.299600569177 xtb: 6.4.1 (79825abcba525fcdf90b791dcacef51065a7a4e7)
C         2.69641947701107   -0.46208986820448   -3.85919867174904
C         2.65722557008686   -0.73016743969337   -2.36185435275655
C         3.33525534397851    0.35611397750683   -1.44186014679504
O         4.64197760266234    0.76302959305549   -1.88230899005835
C         2.44260543696882    1.66077350682960   -1.46273981441433
C         3.03305081266523    2.94254184670846   -2.19358086819240
N         2.06004162881868    3.97467374616779   -1.81951807038023
C         1.71637515441514    3.72237154351048   -0.41224194885836
C         0.20538216410564    3.84930977676419   -0.20902629066500
C         2.22071930816196    2.30651750442646   -0.08524477057776
C         3.52569527008047    2.44295413978507    0.68210416620034
C         4.68693900963350    2.95827475579340    0.97537464797742
C         3.05178800969517    2.92317487535284   -3.71334374219751
C         2.68509468526197    3.06913190938038   -4.95603330455918
C         3.35610596629710   -0.32012788891092   -0.03255071315660
C         4.69524676845811   -0.60996933821100    0.58463765148961
O         2.27319323235606   -0.51621108762189    0.54386307828636
H         1.82204191965367   -0.96632868651584   -4.30462887964170
H         3.65030179781110   -0.81262871498280   -4.26595370977032
H         2.70256613330889    0.59095370597768   -4.12854364014707
H         3.06251612268776   -1.71778337251065   -2.09300404152691
H         1.60570554954091   -0.73537148072869   -2.04858810559723
H         5.16519774789456   -0.05210888329734   -1.96672874992735
H         1.45606202149419    1.44697468508240   -1.90583372070513
H         3.99989032417717    3.12671932715180   -1.72664502620135
H         1.32360145153494    3.97178296116874   -2.52280128802096
H         2.18251778508032    4.44567166848354    0.26743027819058
H        -0.29816484169937    3.06719104805620   -0.78661392082667
H        -0.17473351819177    4.81739254223026   -0.55440903856954
H        -0.07688518605180    3.71627694596595    0.84177134156368
H         1.50329778115858    1.74626532862763    0.52367047178591
H         5.68956169429523    3.13203686117873    1.29285490735975
H         2.64526252347984    2.89767903805352   -6.00711802567960
H         5.35109738729211    0.23932398480212    0.40123697305258
H         5.11116113101881   -1.48458714406920    0.07429396865013
H         4.65906503876910   -0.82605125512327    1.65603386239255
