36
 energy: -50.511956914991 gnorm: 0.306723292714 xtb: 6.4.1 (79825abcba525fcdf90b791dcacef51065a7a4e7)
C         3.68054537762440   -0.08019546075671   -3.74797024608241
C         3.22009760168645   -0.62570580052932   -2.40415176886399
C         3.40911623375554    0.43979720725141   -1.25737525095564
O         4.80582431142834    0.77943515583066   -1.28821677050499
C         2.39222525657685    1.64742850127278   -1.34077631698332
C         2.75752144419243    2.65071238656323   -2.51791888065149
N         2.80182372218021    3.96411943075408   -1.86602523040263
C         2.02539818238309    3.93016033211137   -0.61774670198233
C         0.52259261475544    4.03048547184855   -0.88611215333913
C         2.47509475705516    2.55293819533204   -0.10106015260921
C         3.83354929013483    2.69515023893300    0.56585704774164
C         4.94177132495515    2.89271864570414    1.22377840444424
C         1.76535633120921    2.64814925914018   -3.66944272913698
C         0.73759905251225    2.51620911053843   -4.46086649169213
C         3.04240073599351   -0.35020718698236    0.04081724985302
C         4.12233838124022   -1.28722359319446    0.50337819018092
O         1.84395938008470   -0.51332740715941    0.32459817795047
H         3.95051113672132   -0.92997223948772   -4.39773858101842
H         4.58795943307076    0.53068746084284   -3.70746816270429
H         2.84841317255276    0.47820012156824   -4.16896387792647
H         3.82441809171768   -1.47417426129390   -2.04802793064811
H         2.17668592039512   -0.96079913156861   -2.45764669497614
H         4.93617740381493    1.52062071305948   -0.67259611138500
H         1.36609156447998    1.25669551246939   -1.43920106630241
H         3.70329385735712    2.34115915634785   -2.96111230589652
H         2.58843060887239    4.78779457052954   -2.42547353895868
H         2.43598910156894    4.70558191873619    0.03993316821530
H         0.26269199069812    3.45942656305677   -1.78345275158654
H         0.37725688833504    5.07402621785277   -1.18754482264478
H         0.04620976977378    3.79200671334116    0.07187298304457
H         1.84908022352449    2.18074925705720    0.71682437766126
H         5.82605860629042    2.92792479245795    1.81794650331056
H         0.08665661973720    2.85958529018000   -5.23166382488736
H         5.12063980911784   -0.99050360966972    0.18647677197403
H         3.85633022347632   -2.23349313866291    0.02150127692722
H         4.15179635427084   -1.41592420534116    1.58894658905979
