36
 energy: -50.521068283115 gnorm: 0.300019165942 xtb: 6.4.1 (79825abcba525fcdf90b791dcacef51065a7a4e7)
C         3.02308784399998   -0.52217325437628   -3.64625503498112
C         2.87592137865965   -0.88823087176986   -2.17663411872921
C         3.33112021865071    0.34202021136465   -1.30176420907997
O         4.67428825586309    0.70190321853255   -1.66711669532491
C         2.43150255590558    1.63905181647513   -1.39004452307375
C         2.85550601275464    2.61088253987663   -2.57387330892735
N         2.88676260760291    3.91241929898693   -1.89786208037205
C         2.06022736941685    3.88382250374675   -0.68204513391957
C         0.59177382305262    4.22978621525355   -0.93594081233742
C         2.40174338542593    2.49586019057652   -0.11383719561632
C         3.70118017640021    2.64139216943735    0.66120219128971
C         4.98195645314916    2.71515044032005    0.89405787048625
C         1.87711073465021    2.58017199828820   -3.73671676669228
C         0.99386215947974    2.84331993250661   -4.65903445756902
C         3.24062377124743   -0.27772707609496    0.13058164247949
C         4.50660391846800   -0.71362429374641    0.81286864389211
O         2.15112576236480   -0.51407407972529    0.67879298668066
H         2.77963395943620   -1.41345684056881   -4.24920175688841
H         4.06915515367094   -0.26702419476272   -3.84338639554732
H         2.35564954617407    0.28827059629239   -3.92766603979740
H         3.53068790139148   -1.73265410826209   -1.91176365193430
H         1.83585261328698   -1.05825784426905   -1.87133921458777
H         4.90075181755770    1.53810984085629   -1.22574441055691
H         1.45868880752099    1.16516948658560   -1.60070780477767
H         3.79624275367221    2.27181169335459   -3.00604736888923
H         2.68462964819302    4.70537027528833   -2.50394028199175
H         2.49248187552226    4.66306516833584   -0.04302770824720
H         0.18065874385638    3.56684594123476   -1.70429707437027
H         0.50184960766220    5.25854280976934   -1.30273083144031
H         0.01292237831465    4.11448091113502   -0.01226124451414
H         1.63897887228035    2.07579223871057    0.55030671151816
H         5.85317890428507    2.91402400663092    1.47514303935814
H         0.51696935615574    2.93818859532021   -5.60736719017821
H         4.25283330244312   -1.35343775707558    1.65626309687986
H         5.02879365675596    0.12470210577722    1.28501106924435
H         5.26511189671582   -1.15345033594403    0.15933282811862
