36
 energy: -50.517849066872 gnorm: 0.305348006943 xtb: 6.4.1 (79825abcba525fcdf90b791dcacef51065a7a4e7)
C         3.20256757531380   -0.35614233651947   -3.76913741876032
C         3.03007627983557   -0.75208147212536   -2.31005526643313
C         3.36850778126903    0.36723560292736   -1.25236227239748
O         4.76765374635751    0.68862117591265   -1.33110532969623
C         2.42674375718798    1.62983387271567   -1.38772283008135
C         2.86019854605528    2.54552606565066   -2.61218567265543
N         2.80663471743903    3.93393931710796   -2.14164804397123
C         2.27011823481180    4.01742646200741   -0.77513090798592
C         0.75207951441039    4.19587460083004   -0.71013524768466
C         2.56050769840018    2.61471539735964   -0.21476633581924
C         3.91053862754968    2.64242111069117    0.48312366261249
C         5.02188578958349    3.09689702129218    0.99146315439207
C         1.87072561822422    2.36153538870254   -3.75126254846012
C         0.84665732971203    2.38481582209869   -4.55797623601479
C         3.05263938239304   -0.26698885348812    0.14115035912530
C         4.13755432306575   -1.04348408041517    0.83270109043387
O         1.89209422837554   -0.21710702871274    0.58165943934662
H         3.03462310480221   -1.25958210619305   -4.37970453939598
H         4.20966819797949    0.04056513686501   -3.93220226942361
H         2.46167572433951    0.40316196639728   -4.00582605408874
H         3.66573312253223   -1.64395383286151   -2.19856431810957
H         1.99347539952718   -1.04348363902632   -2.09934082782121
H         4.96650561082282    1.51566994273053   -0.86016475623224
H         1.38774498747538    1.29708996141839   -1.54606771810395
H         3.89498694484361    2.34592477852541   -2.88805043622655
H         2.36268236578968    4.48813632481529   -2.87153280160967
H         2.75491784751405    4.82903019619288   -0.21954557303202
H         0.28619403179048    3.34919603496520   -1.22488070522030
H         0.36276268064261    5.16198578266091   -1.05075673750114
H         0.49314670346782    4.02946112930330    0.34191447201137
H         1.81900059375742    2.32677934392134    0.53797130948891
H         5.99733518275112    3.22559962849717    1.40155257773998
H        -0.02890330365407    2.38468759528818   -5.16555778313141
H         3.72254636280791   -1.86568575516620    1.41306976470037
H         4.61562558438014   -0.26511045187054    1.43600376326563
H         4.78165196608647   -1.45669820319376    0.05149517257928
