36
 energy: -50.514687092623 gnorm: 0.303340123469 xtb: 6.4.1 (79825abcba525fcdf90b791dcacef51065a7a4e7)
C         3.01580716788395   -0.48489951400368   -3.67869130872035
C         2.95553975122476   -0.87734444510821   -2.20974727293631
C         3.37359030945083    0.29694787638651   -1.24414263880329
O         4.72429764952846    0.67665713463257   -1.55800430412521
C         2.48066573766918    1.58687411828256   -1.43952001222016
C         2.83085985477374    2.53005683319254   -2.66974556315139
N         3.00395920109317    3.85647392184271   -2.06756584747542
C         2.19436152164297    3.94434855399249   -0.84322162699687
C         0.71884582149572    4.29940236402032   -1.03635354646107
C         2.41838406003017    2.54707482608583   -0.24041745706735
C         3.76767540948972    2.59188985621784    0.45801369087194
C         4.67123170014676    2.84072707112466    1.36449921286029
C         1.74219462854346    2.48856394344079   -3.72969448015777
C         0.67249828051703    2.64159188132830   -4.45933615089772
C         3.25993389752791   -0.12679222750044    0.25632977479609
C         4.47792387408136   -0.87345053148503    0.72240858064580
O         2.21440233642472   -0.05325725285538    0.92330641582427
H         2.81292886743370   -1.41298720278037   -4.23966778635714
H         3.98529497006665   -0.06882431313447   -3.97057048853648
H         2.21803690155511    0.20434611545571   -3.94324438506856
H         3.59217565096318   -1.76533870618855   -2.07525907128041
H         1.96110525518717   -1.24502008649885   -1.92730820193043
H         4.94985159176291    1.52823865107488   -1.14657862302137
H         1.50579645222685    1.10977697558048   -1.63269936301281
H         3.76691629512180    2.21132275104599   -3.12684072549091
H         2.74346911002718    4.67356052519880   -2.61663247719477
H         2.66308588432517    4.67806406483155   -0.17661426145006
H         0.23202809896923    3.32754462742908   -1.16817846472409
H         0.62945897692142    4.94230313728132   -1.91933146409700
H         0.28230820868690    4.81564032597143   -0.17352011427969
H         1.67757964020809    2.22728621418999    0.50005399379145
H         5.50065086935777    2.72243980702449    2.02352212205199
H         0.12946704893736    2.90940384086781   -5.33635132215743
H         4.57519251933604   -1.85494652040085    0.26167066436688
H         4.55287381608457   -1.04418840078225    1.80112208467611
H         5.39224812554664   -0.33424014630566    0.45943769382937
