36
 energy: -50.516425561268 gnorm: 0.304866151799 xtb: 6.4.1 (79825abcba525fcdf90b791dcacef51065a7a4e7)
C         3.68591418366926   -0.14869912390431   -3.84958840790277
C         3.10761857486493   -0.52412948024187   -2.49309734360076
C         3.50596394397791    0.43041892258966   -1.30302197930370
O         4.89679479096763    0.77112127429383   -1.43190188142044
C         2.53658207503464    1.67719209526416   -1.37549097179051
C         2.82292838635113    2.68801249575940   -2.56793902420340
N         2.86472507252758    3.98420816059354   -1.88230361820591
C         2.05139228913658    3.91740037239698   -0.65910469295081
C         0.54443803284722    4.10825002970027   -0.84124470843281
C         2.41682285327128    2.53084851838238   -0.10244747926521
C         3.61801963623876    2.61614982269712    0.82504995237671
C         4.81275725825773    2.54836376662265    1.34279210430709
C         1.69693518097730    2.55766961531873   -3.58063608982688
C         0.70565043407137    2.45028703898377   -4.42079577928757
C         3.12698027097069   -0.35411272731051   -0.00503415368016
C         4.19630478591795   -1.22457035340533    0.59252443474892
O         1.96420084692496   -0.28967981017867    0.42762494873127
H         3.42987785928191   -0.91220964157257   -4.60370912827793
H         4.77565337669477   -0.04555092034971   -3.84269152410007
H         3.26048317308767    0.77329191689192   -4.23743662971307
H         3.39998451373720   -1.54270856488091   -2.19486091524320
H         2.03157986661964   -0.58893078563801   -2.69754456354382
H         5.01965201203391    1.62222431517240   -0.97817677886062
H         1.58913554706982    1.14753925791276   -1.56816429206976
H         3.82824417435966    2.53539668070672   -2.95880681227539
H         2.51706862045005    4.74401349128225   -2.46436084869671
H         2.36995544691933    4.69808593873617    0.04193304300075
H         0.05904382809041    3.22231663227952   -1.26360857739091
H         0.48397437716296    4.96306565903497   -1.52432288825175
H        -0.02065861188300    4.39172530596133    0.05421930367770
H         1.62818666502714    2.05776144795829    0.49219147592659
H         5.63299844068247    2.71201886525414    2.00359510881203
H        -0.04414177388607    2.46715818096180   -5.17795412684502
H         3.68533579621702   -2.05473775773292    1.07709411069999
H         4.55080080464402   -0.59051322016247    1.41148467491061
H         5.02459734217698   -1.45895360197791   -0.08192815543044
