36
 energy: -50.511910434678 gnorm: 0.307808426486 xtb: 6.4.1 (79825abcba525fcdf90b791dcacef51065a7a4e7)
C         3.07521154405216   -0.76122581022197   -3.41805908095070
C         2.71335041014079   -0.92488703402660   -1.94914338660678
C         3.28355988039747    0.34872059366143   -1.21504130768092
O         4.63134079149514    0.53678158262595   -1.67895754653829
C         2.31738198463525    1.58691461696357   -1.39607220299396
C         2.69592440422527    2.40046059470192   -2.70776312115638
N         2.87841808693656    3.78715046427799   -2.26532290252650
C         2.33977933857039    3.99268998351349   -0.91261786511276
C         0.95543338112220    4.63588274064238   -0.81064204180336
C         2.44709085781367    2.60716247821487   -0.25327682939702
C         3.83712100430903    2.59130996548072    0.36151295493513
C         4.92562353540740    2.85343510569252    1.02972143382956
C         1.60114865012706    2.30715647476953   -3.75808008446316
C         0.78072773329849    2.37160318233916   -4.76941629307071
C         3.24067913573170   -0.14109936104768    0.26891577772426
C         4.58834550250615   -0.54018942883686    0.80065835407704
O         2.11528498343752   -0.06878991796500    0.79012672629948
H         2.77140246485061   -1.60881308188559   -4.05563012374706
H         4.14505118962945   -0.62531106539643   -3.60564625428075
H         2.57422608144307    0.13319223224906   -3.77932796185530
H         3.25648711528810   -1.78447983548767   -1.52720866944470
H         1.63577417678459   -1.09455013058775   -1.83124055626236
H         4.87998680810290    1.29643742120446   -1.12539189974574
H         1.26781051855133    1.28512778522687   -1.54651989882545
H         3.65281786968735    2.02428997671057   -3.06773482469414
H         2.47653969697576    4.48321576195877   -2.89058015368596
H         2.97555991918145    4.65956806868841   -0.31809029560569
H         0.21532116606296    3.97306226346492   -1.27083730971003
H         0.94046084282013    5.58702866105500   -1.35475478191743
H         0.74242712239699    4.72632060906328    0.26080444761015
H         1.72319626600312    2.47754442517666    0.55822159442939
H         5.84832297486809    2.67784019574924    1.53373670818150
H        -0.08067463833730    2.35217039674013   -5.39660851564499
H         4.53039989042746   -1.11307879609524    1.72451715180638
H         5.12586432692089    0.40355276975863    0.93782951394972
H         5.03117551729881   -1.13300164533473   -0.00455318754199
