36
 energy: -50.513291777216 gnorm: 0.299776610272 xtb: 6.4.1 (79825abcba525fcdf90b791dcacef51065a7a4e7)
C         3.13437698695064   -0.37249486003177   -3.81178098679844
C         3.17244208091496   -0.75152122852299   -2.33857637402512
C         3.51019668834339    0.42619737295522   -1.34609373926887
O         4.84075849356878    0.90016971410547   -1.61452264779889
C         2.45658916176056    1.60014596750416   -1.45169773604487
C         2.90604876642579    2.78724008886480   -2.40798121437611
N         2.89355117165176    4.00036582816470   -1.58327772188514
C         1.90490472196688    3.84462726293913   -0.50600671276782
C         0.46853605471651    4.10722834658178   -0.96251021609657
C         2.15264487103499    2.36775025879252   -0.15473479373913
C         3.33084868344284    2.21936407566729    0.79406387964800
C         4.51937436241119    2.50550562408871    1.24747281527423
C         1.90895275530827    2.94597977338830   -3.54420594048206
C         1.23899302574101    2.82561446174191   -4.65628100950666
C         3.32615433973079   -0.25413817265147    0.04931404920945
C         4.54877676823538   -0.81386964633808    0.72022591785759
O         2.17070542788274   -0.34804589785757    0.49599138581458
H         3.04536471186659   -1.21236342316212   -4.52163912727378
H         4.08256881817941    0.12667747968384   -4.03533826418641
H         2.34314251995882    0.34661119707833   -4.00753533354151
H         3.88996924139611   -1.56990875866951   -2.17328032467444
H         2.20025848595398   -1.14174074976684   -2.01231732800828
H         5.20330441919518    0.57444860585284   -2.45583291089233
H         1.54058339009884    1.11630314919819   -1.82871182094605
H         3.92546431737233    2.69952607261487   -2.78191604117337
H         2.78424253889827    4.90369377063113   -2.04045386178383
H         2.27648249597768    4.50788439294782    0.28419977463615
H         0.20085622793085    3.35607323972409   -1.71283699642357
H         0.33826000180038    5.13269183201964   -1.32639783969139
H        -0.26122889200274    3.91394514693613   -0.16775680750784
H         1.27871926947614    1.95008314670825    0.35630546485392
H         5.35495098903633    2.34231380380950    1.88889262113727
H         0.61997183435235    3.11461712098322   -5.47423700544578
H         5.32420365270063   -0.05124683285098    0.76707234760318
H         4.88646061648309   -1.71546885612469    0.19918827470119
H         4.23448190035837   -1.08653158444208    1.73154415195060
