36
 energy: -50.515235556684 gnorm: 0.301787310377 xtb: 6.4.1 (79825abcba525fcdf90b791dcacef51065a7a4e7)
C         3.29003711266083   -0.21724107858760   -3.79087359525472
C         3.05648054594044   -0.69817081827749   -2.36623339510588
C         3.46576867191771    0.39350373255802   -1.30470101599870
O         4.84646150852369    0.75489137388150   -1.47843891396235
C         2.42225255172782    1.57406982705285   -1.43406159537118
C         2.82309396743942    2.66378293445226   -2.51920489801465
N         2.90437872693638    3.89012655129403   -1.71830526591976
C         1.96822297525910    3.77424504668008   -0.59031013553853
C         0.50585374486894    4.06960410783110   -0.92905633140681
C         2.26945999888303    2.34373474592960   -0.11194900177959
C         3.52011748408161    2.36618587439568    0.75162114465191
C         4.78762223028981    2.27705573978094    1.04408903577958
C         1.79782014178168    2.85086367231500   -3.62564952983350
C         1.06229542361919    2.92775723194724   -4.69949102766826
C         3.22072589838590   -0.29006389979388    0.07970510246886
C         4.44095660295883   -0.76301202245799    0.81834221173123
O         2.03995976432749   -0.32501659113319    0.46437528613028
H         3.26681179868818   -1.08146102307808   -4.47628255782479
H         4.28964721448929    0.19665875705144   -3.95726230017723
H         2.56037883372149    0.51392391837888   -4.12922520587016
H         3.69547599240855   -1.57021032642060   -2.15848815486977
H         2.03373300534727   -1.04394508477436   -2.17056835040480
H         5.01181002451171    1.59012584165066   -1.00899242544504
H         1.43312974283759    1.17745848001767   -1.71627707281265
H         3.79336635571738    2.40718028523876   -2.94282694440660
H         2.76587908501243    4.72117515759713   -2.29026316368456
H         2.23308229425007    4.50815932934655    0.18016097113330
H         0.12513407138001    3.56161908062152   -1.82117768057085
H         0.39591263489005    5.13635205244022   -1.15471800031159
H        -0.12809056638452    3.79671846452664   -0.07747175558350
H         1.50228839754830    1.92917158291145    0.55057574480337
H         5.66524037304843    2.11044189136539    1.62569495990244
H         0.54583593845352    3.23311947695741   -5.58027775832167
H         5.27846176658157   -0.75502624496407    0.12293130520658
H         4.34583858857066   -1.79009798784840    1.18500108126188
H         4.76061493029687    0.03763165019071    1.49115617783857
