36
 energy: -50.522801625733 gnorm: 0.302144702832 xtb: 6.4.1 (79825abcba525fcdf90b791dcacef51065a7a4e7)
C         3.47524502088289   -0.15453320724671   -3.92710916708039
C         3.19296207469985   -0.67798891280417   -2.52648351007713
C         3.42854036252372    0.35498088627736   -1.35875181007366
O         4.82168718718097    0.70155985925738   -1.43700476648458
C         2.45075249810421    1.59587769005840   -1.41793250725252
C         2.88742758600284    2.73618076710729   -2.43513861027241
N         2.74979018317287    4.03514226141565   -1.76751514806801
C         1.95740199964894    3.80911140343822   -0.54963988748295
C         0.45271329734032    4.00101732584213   -0.74862169168453
C         2.34091628842412    2.38757013441682   -0.10458927273212
C         3.69474430119386    2.41229925244903    0.58601900514154
C         4.73693414317328    2.81424301856601    1.25857493574218
C         2.00437203812847    2.70849666931256   -3.67201042177878
C         1.02786319090421    2.69967492356332   -4.53595340073311
C         3.10163203363068   -0.39079945701432   -0.02427304928278
C         4.32026691400243   -0.80168418536778    0.75311387847922
O         1.94016672755855   -0.67510551948861    0.31272827458010
H         3.25961056637188   -0.90923835138716   -4.70243032413863
H         4.50658739104415    0.19019740670345   -4.05245806286863
H         2.86560978292093    0.71065392645175   -4.17465990341594
H         3.85988217268239   -1.53298795193786   -2.33642986246277
H         2.12526972509104   -0.92806348264269   -2.48970120715575
H         4.97246217814066    1.45271602943211   -0.83836625849720
H         1.44817861506672    1.20516323777429   -1.65771969407161
H         3.91279455404954    2.57901336217900   -2.76777965585786
H         2.23289087363637    4.62640065828213   -2.41573454856117
H         2.30768904701617    4.58631838006887    0.14003732551660
H        -0.07849745129179    3.15156831421768   -1.19035495660439
H         0.17796867070816    4.90910163589481   -1.29712847352336
H         0.04445481640866    4.15569085946692    0.25683808744574
H         1.60357188980560    1.99744252791092    0.60497228905972
H         5.66842286004189    2.73598751477617    1.77086789889213
H         0.40247779426012    2.95885585740858   -5.35904521545084
H         4.91389525822137    0.06646147806120    1.03418947958311
H         5.05187471802605   -1.42428077406158    0.22821841398518
H         4.01459988041299   -1.41317141438824    1.60666024441862
