36
 energy: -50.519496513196 gnorm: 0.307798864529 xtb: 6.4.1 (79825abcba525fcdf90b791dcacef51065a7a4e7)
C         3.07201175192357   -0.49080689237633   -3.57252666128517
C         2.91595449478760   -0.81386125020137   -2.09376914439565
C         3.34549771421412    0.41343458537697   -1.20194033948721
O         4.74252756897008    0.53010599395848   -1.52099196445384
C         2.44897425547944    1.69509078943698   -1.43215626073772
C         2.85630693612955    2.63742555454437   -2.64532143779977
N         2.84729848083908    4.01025358959871   -2.12838031979578
C         2.14838493158687    4.00263664577555   -0.83468369954439
C         0.61906478723625    4.03801951923082   -0.81376307619770
C         2.54200867394544    2.64544334058179   -0.22721395095556
C         3.98835608055533    2.59400682474265    0.23736653938792
C         5.12281990982380    2.69571256203969    0.87195116990927
C         1.79777521594124    2.44954263657315   -3.71985202149928
C         0.82366600611151    2.66486050741054   -4.55937228107519
C         3.14502792505974   -0.09149448525606    0.26392098288765
C         4.28229188792443   -0.93601524357808    0.76556131807972
O         2.08834540977768    0.04893440281867    0.90196742840974
H         2.99380580549908   -1.45734963530477   -4.09872047489621
H         4.02705963054302   -0.02256988330126   -3.83109247932157
H         2.28849306315532    0.14427787654927   -3.97780566178829
H         3.64821363244616   -1.58132824315535   -1.79929140673482
H         1.90410257810266   -0.99550898890071   -1.71034120539683
H         5.01844717492309    1.36197757317581   -1.10004683585943
H         1.43256371787260    1.31591023948630   -1.62822202724383
H         3.86187665739314    2.41244848556126   -2.99879550206168
H         2.45945261917093    4.66292396251578   -2.80702362859432
H         2.52194622361689    4.82296529193055   -0.21024857768190
H         0.20773483822577    3.39498221724803   -1.59873916580045
H         0.26981901341613    5.02765898352692   -1.12936176707351
H         0.17205330420630    3.75053277081091    0.14492371011968
H         1.91540000381518    2.36212098096766    0.62510284325722
H         6.12018857302670    2.72148987476673    1.24722505640705
H         0.07858022579985    2.53283976766798   -5.30982513364356
H         4.42536694351203   -0.85180321632922    1.84143903181856
H         5.18278615150903   -0.66398474368945    0.20564951121339
H         4.03514067264445   -1.97153604507414    0.51555469167198
