36
 energy: -50.519876784550 gnorm: 0.304201779732 xtb: 6.4.1 (79825abcba525fcdf90b791dcacef51065a7a4e7)
C         3.27576766341710   -0.25268136215091   -3.75695288517747
C         3.29499147848864   -0.76351079742824   -2.32373081261069
C         3.50153911377032    0.43989475175169   -1.32609650461042
O         4.80698283065825    1.00583864018706   -1.53254939593543
C         2.40749218571215    1.57453901453456   -1.44873426561322
C         2.80261432570195    2.66758661233241   -2.53262074195108
N         2.78508347615566    3.94211696029418   -1.80651390128267
C         1.92653663596898    3.84712184006125   -0.61652971891068
C         0.42419990128556    4.05828963118269   -0.81376614301638
C         2.22269683052201    2.40573244551600   -0.16862510462610
C         3.44400783933343    2.35999769984312    0.73509458284749
C         4.61979133346632    2.30350919123119    1.29580136717660
C         1.80410272880141    2.74908109600841   -3.67574740575814
C         1.16694307204824    2.96178919607286   -4.79325696692046
C         3.33028290269168   -0.25447654342488    0.06401526967868
C         4.56632711840286   -0.90430054761376    0.61912887706962
O         2.17725579128852   -0.36611085354555    0.51286685630494
H         3.10360980877285   -1.11232562164825   -4.42670984990578
H         4.17660768969620    0.24040694045423   -4.13585894305357
H         2.47361167161967    0.46675811491436   -3.89991397209488
H         4.13301127991025   -1.44447585990948   -2.10940498954851
H         2.32129291203318   -1.21934558896198   -2.10468075561307
H         4.89850806435572    1.65542136036439   -0.81491287398793
H         1.39644609429399    1.20654221637922   -1.68888880531460
H         3.81656793004867    2.56327174949180   -2.91699757499485
H         2.64310150531884    4.77449893171059   -2.37567217165840
H         2.22546566908932    4.65410134948906    0.06305239036712
H         0.02521939361500    3.50671133876536   -1.67135153077147
H         0.15846203162335    5.11638834558287   -0.91755392618987
H        -0.08932214301198    3.64524782423240    0.06215612864693
H         1.37944547706895    2.13159993096701    0.47412866987192
H         5.34009925190910    2.09875816612634    2.05440055091545
H         0.46102388977406    2.97129347297439   -5.59159871081140
H         4.93921748850528   -0.48116743044702    1.55024977549889
H         5.33950903195852   -0.90878612126274   -0.15583005755401
H         4.38897427199704   -1.96789554532416    0.80134307306852
