36
 energy: -50.517536565363 gnorm: 0.305431096248 xtb: 6.4.1 (79825abcba525fcdf90b791dcacef51065a7a4e7)
C         3.09802438086167   -0.60925737943070   -3.62436747332339
C         2.96834646537252   -0.85344381836876   -2.12803916889585
C         3.37993254648944    0.39008983029309   -1.25034786363535
O         4.73614166293966    0.72046074733697   -1.59480465275078
C         2.40927029279619    1.62917134429408   -1.39829425458713
C         2.84773443932366    2.55676159082943   -2.61197050520605
N         2.99761560498517    3.91003464183568   -2.06593588729005
C         2.16881736454168    3.99499619174230   -0.85429891887695
C         0.68597662954585    4.24834190794189   -1.13270335047043
C         2.37014329101029    2.61039190761298   -0.21533752271314
C         3.68699327041528    2.57599447298722    0.54303211651271
C         4.84255708924087    2.71338014305113    1.13111998295513
C         1.76470391745812    2.54497865628890   -3.67841856459491
C         0.65406954722212    2.87417235882739   -4.27688965357086
C         3.29552872183121   -0.14086484652116    0.21759426042159
C         4.47847115028350   -0.88363879217099    0.77181601850017
O         2.19346028792580   -0.27423224970710    0.77532161490513
H         2.75946467754054   -1.55912604374067   -4.07194743425833
H         4.14326555100270   -0.45200577450209   -3.90890474218162
H         2.56561580846507    0.18996242392105   -4.13355710605842
H         3.57717689207809   -1.73271492037407   -1.86701426317385
H         1.90937588287209   -1.05414809570637   -1.92271922291738
H         4.89759658783872    1.60265703375203   -1.21930661770014
H         1.41289114999015    1.18476806515283   -1.55654847114618
H         3.83399798588880    2.30707417456702   -3.00141818391478
H         2.81526301483653    4.64689446571994   -2.74471781767442
H         2.70651851160632    4.75881291217428   -0.27995768992538
H         0.26259159951981    3.32984623573571   -1.55221208471343
H         0.58535938927357    5.07758980336338   -1.84205905260843
H         0.12048008944961    4.42168068581210   -0.20981896755818
H         1.64563839593953    2.33336153499869    0.55777355682759
H         5.77877849295944    2.47067709254185    1.57925380656183
H        -0.05389421325946    3.06272027428539   -5.05083977824864
H         5.23069751322734   -1.16106078497818    0.03542785075566
H         3.96381935694760   -1.75186867001952    1.19572894006547
H         4.86107360916775   -0.26854121592752    1.59106000002762
