36
 energy: -50.515434492514 gnorm: 0.314190690039 xtb: 6.4.1 (79825abcba525fcdf90b791dcacef51065a7a4e7)
C         2.65751017751782   -0.68228882139263   -3.53135113317989
C         2.94416975072798   -0.84443986650191   -2.04576199012745
C         3.37913499419928    0.42785922943344   -1.22224433729263
O         4.74571205749165    0.76594093831396   -1.51424859931322
C         2.42206169119397    1.66820345419833   -1.43426613385597
C         2.78088489382555    2.39526473936272   -2.80112834147280
N         3.11988305281349    3.74372968900664   -2.33348678681457
C         2.48657504831889    4.06373853977940   -1.04557979357873
C         1.04520718298405    4.56924164049998   -1.13180634459844
C         2.47356242452133    2.71383530010890   -0.30833849350910
C         3.68736440489661    2.66599969802911    0.60533433723990
C         4.79662064554002    2.70068789728149    1.28972983814442
C         1.56508294528435    2.24131878310175   -3.70031221660950
C         0.40309130176166    2.24291038230947   -4.29176610645873
C         3.31482239473317   -0.16121697120797    0.22438764365474
C         4.56242601501960   -0.74325425026764    0.82683722026660
O         2.20464352025400   -0.04902038019981    0.77057103681865
H         2.38202252288341   -1.65694857573553   -3.96878214150773
H         3.52768635741155   -0.28747069705870   -4.06532743786538
H         1.82166599488144    0.00592023076416   -3.62736192416737
H         3.78397918325312   -1.52331667916902   -1.83181676316771
H         2.08925056020886   -1.34913983210015   -1.57859145974059
H         4.75026548469330    1.70566579599180   -1.26478273419972
H         1.35931380719998    1.37574639750155   -1.41566849339829
H         3.62814736803674    1.90366224754296   -3.27778583211833
H         3.01551459793965    4.45122255193523   -3.05841495208623
H         3.06157239004734    4.84616493591887   -0.53607676072244
H         0.39637656520343    3.74138923317879   -1.43603649189634
H         1.00395559128785    5.39040732187714   -1.85633836220371
H         0.69092866143516    4.81925316463305   -0.12506446037131
H         1.61463795993265    2.61653704339363    0.36407188732565
H         5.64811471565053    2.63555683911176    1.92766007850765
H        -0.47780742370683    1.92663130025496   -4.80141967626904
H         4.90355353512865    0.04157439433736    1.49970497631715
H         5.27831900094510   -0.92048253466037    0.01783838434368
H         4.42358117997017   -1.63547906889436    1.44372242055810
