36
 energy: -50.511306159649 gnorm: 0.301050846012 xtb: 6.4.1 (79825abcba525fcdf90b791dcacef51065a7a4e7)
C         3.38272253487059   -0.22557233292434   -3.91776848972338
C         3.38415356135564   -0.63491394841520   -2.45220404170796
C         3.46284327048798    0.49078788836732   -1.35096640083634
O         4.70457138478238    1.21506380752770   -1.37615095205289
C         2.36440015262164    1.62243978035519   -1.46134325111605
C         2.71933807611097    2.68654188939516   -2.58712754027315
N         2.86509270500095    3.98017717649534   -1.91094012625804
C         2.18436638431683    3.93502916813211   -0.60834178235343
C         0.68011282920534    4.21305419425491   -0.58753196113447
C         2.32100353117005    2.46516517196070   -0.17618101322262
C         3.52557806082828    2.29792166052053    0.73564756639879
C         4.28564526949560    2.31805840840422    1.79486531498708
C         1.61199471958681    2.58309900701305   -3.62322389225235
C         1.05439326300107    2.59926502794760   -4.80172467725135
C         3.20607284275938   -0.30989750268481   -0.03306550120451
C         4.42250611679838   -0.94041232755234    0.58416120259537
O         2.05101570625203   -0.31240581591408    0.42436012550838
H         3.11436196100241   -1.11253108690611   -4.51650694683769
H         4.35889606690143    0.12467892661486   -4.26795117733087
H         2.57780843677974    0.48784163916599   -4.07473684398110
H         4.20931375806396   -1.32930055463537   -2.23115190388353
H         2.44312178704260   -1.18403309257802   -2.32264887695934
H         5.36442334536689    0.56359020739915   -1.66857922223318
H         1.40000925560562    1.14957979434098   -1.70966498656456
H         3.65367674757861    2.52493319600592   -3.12343244450632
H         2.54585797135651    4.78856754173828   -2.44155671977205
H         2.74900318167342    4.59964319832053    0.05639863693726
H         0.15545824154962    3.60719839216672   -1.33355680690830
H         0.48546198393093    5.26953633743009   -0.80413746059378
H         0.20814196947066    3.96906248714250    0.37124841246405
H         1.45337714729663    2.15217044914527    0.41425329537261
H         5.18585330794081    2.19691255888101    2.35270792907339
H         0.26782564224350    2.47398057346107   -5.50980445725229
H         5.12039150136901   -0.16878411864330    0.90450616113567
H         4.95941383418791   -1.65530585783884   -0.04754211520157
H         4.05983737640145   -1.46942788757045    1.46988366970381
