36
 energy: -50.517972155598 gnorm: 0.306242496749 xtb: 6.4.1 (79825abcba525fcdf90b791dcacef51065a7a4e7)
C         3.27994111089964   -0.49674008347844   -3.65354858153990
C         2.91998210719048   -0.77638570443389   -2.20176705107068
C         3.37438126801155    0.38703213159880   -1.23942543361420
O         4.76030871024132    0.67737430676481   -1.48843370841556
C         2.48460126577272    1.69239788893965   -1.30031958805674
C         2.71019926723618    2.52784794684735   -2.63329116406660
N         2.94894831130326    3.86044867066609   -2.06836611848630
C         2.21613426398677    4.02869353647519   -0.80469434246314
C         0.71412623720096    4.26215602118210   -0.97783265359098
C         2.47734977373305    2.67668781708958   -0.11928949805172
C         3.86175743192579    2.67307257495458    0.50824846632617
C         5.01538565841842    2.80286617925828    1.10183537008488
C         1.47937959927944    2.43079222572348   -3.51989621802197
C         0.83664513714365    2.50886796446226   -4.65163886727021
C         3.11244429836238   -0.20869709934919    0.18197762266649
C         4.29686830052215   -1.01250100281783    0.63943443681090
O         2.01205463435017   -0.10134670278666    0.74856386169335
H         3.29614120401532   -1.47293059581664   -4.16734874900909
H         4.32692764431030   -0.19527889077668   -3.75918463549586
H         2.66065794334126    0.23662517032611   -4.16359664580315
H         3.37120587038879   -1.71578907268970   -1.84702124792945
H         1.82851321852391   -0.83962984063910   -2.10928449411107
H         4.92690588666046    1.48742964852566   -0.97716814235193
H         1.47042608052220    1.26024462457607   -1.30184417620807
H         3.61684470618095    2.25027279651477   -3.16964473693276
H         2.76445120614382    4.60344240969126   -2.73984277135177
H         2.67147919578457    4.88523043597536   -0.29340980480807
H         0.24974005669617    3.40541183644063   -1.47704366789290
H         0.61186803232266    5.15101690411712   -1.61062883247782
H         0.17436818585253    4.34874690741101   -0.02772133613871
H         1.74373786868772    2.33028422058324    0.61635444693195
H         5.90987230632173    2.78281207274559    1.68125806781568
H        -0.08032755140415    2.48611960012338   -5.19423024110835
H         4.78581948513425   -1.67049424900665   -0.07683828997735
H         4.03684398750304   -1.54898964880164    1.55756244139366
H         5.06335801523855   -0.25812276858519    0.83767007538077
