36
 energy: -50.513897282961 gnorm: 0.305542889331 xtb: 6.4.1 (79825abcba525fcdf90b791dcacef51065a7a4e7)
C         3.36006536712858   -0.10220465181413   -3.99019864719230
C         3.10271684043969   -0.61854138213658   -2.58214684041971
C         3.42635267903662    0.33178247645410   -1.36630742575978
O         4.78080924372340    0.77081135168525   -1.56580593165509
C         2.46766714481644    1.58888665228777   -1.36904644813239
C         2.80233389313440    2.66336131542481   -2.49118140030394
N         2.87629002848185    3.93410432060740   -1.76199775294701
C         2.16806926190359    3.81791169077061   -0.47859923462175
C         0.67839748524703    4.03347613938261   -0.75231389526593
C         2.43269960122624    2.36657152792580   -0.04326558682838
C         3.82403931445213    2.44932793755387    0.56313924870373
C         4.70882195499950    2.85304786819259    1.43159757250977
C         1.81508733585467    2.61499931654703   -3.64591544152065
C         0.91302929571305    2.83282311581911   -4.56182420850528
C         3.10510407870606   -0.47247644585686   -0.06482447795550
C         4.13342721164974   -0.66788692490360    1.01341202031459
O         2.00350860656805   -1.04139455033916    0.01404949506803
H         3.20546351606426   -0.98492947781696   -4.63370165595403
H         4.39438047192893    0.25541884974848   -3.96747581826205
H         2.70396963822647    0.73605301770152   -4.21007984786259
H         3.70744544951660   -1.51822673565556   -2.39032467514433
H         2.05392372742886   -0.93396106824695   -2.51580973838634
H         4.93845513166002    1.51915856870890   -0.96542191229109
H         1.47192662170664    1.14387031664844   -1.52958102456166
H         3.78071071765580    2.45033042661839   -2.92028011254170
H         2.50660750030693    4.67065272221697   -2.36015413394506
H         2.67004845915167    4.50387217673618    0.21413553742293
H         0.41010526581364    3.14581092969299   -1.33450503974145
H         0.58301986529499    4.93545933804775   -1.36736742001333
H         0.06058585036281    4.05993967543311    0.15275887668423
H         1.71911532102157    1.96381555265044    0.68332854546555
H         5.64296434501625    3.17287270825814    1.83325577871001
H         0.21383781825329    2.95768924709614   -5.35636904558282
H         4.97837812651503   -1.02000386548159    0.42422052667906
H         3.72838554548744   -1.31221957993611    1.80028457764592
H         4.38984652272602    0.32370975027005    1.39665546744951
