36
 energy: -50.519431921499 gnorm: 0.303121262738 xtb: 6.4.1 (79825abcba525fcdf90b791dcacef51065a7a4e7)
C         3.41812556858449   -0.33197941224035   -3.80686844371606
C         3.14394789588656   -0.82968710653370   -2.39528938853350
C         3.40047253352961    0.33976449714642   -1.36927812919228
O         4.73577916497132    0.84816237844302   -1.52923552915706
C         2.38163916352003    1.54355436925461   -1.48002482248509
C         2.79529980688752    2.61304826770373   -2.58036664950607
N         2.88677439773278    3.90201181067847   -1.88598097216691
C         2.11425037228070    3.80129429671875   -0.63888364918748
C         0.62502093552961    4.09442483920362   -0.83066450075065
C         2.37102648583800    2.35721756687372   -0.17558972654298
C         3.69757737881725    2.41782686758724    0.56399855418609
C         4.53728477659503    2.76118892285627    1.50050477398364
C         1.76961550263211    2.70229988638587   -3.69858452287094
C         0.96001952002118    3.23055357548425   -4.57354005483317
C         3.13584548446746   -0.38686645963512   -0.01064981314625
C         4.41225265879382   -0.70044324772967    0.71782941293654
O         2.02106805958196   -0.73807246826714    0.41045244107409
H         2.89808655399771   -1.04578043300519   -4.46811612719616
H         4.48011542510036   -0.28439155806679   -4.06788868932542
H         2.97297751928333    0.64080750493183   -3.99925892020893
H         3.75732833814189   -1.68957027306253   -2.08498062371790
H         2.10080824836024   -1.16970897939042   -2.38519103423819
H         4.89725321816254    1.43945702565276   -0.77449483034518
H         1.36729350031520    1.13328276813801   -1.61452441678101
H         3.78117080789832    2.38255818842577   -2.98243848086706
H         2.78407649400142    4.72867445964286   -2.47167865061126
H         2.53966134040408    4.47594498082421    0.11363101391445
H         0.17405147778842    3.36099333683369   -1.50711223716548
H         0.48634934447776    5.12202630920608   -1.18530068342425
H         0.11006340145101    3.99444092387165    0.13181677632611
H         1.68166414674212    1.94584421566086    0.56933003254780
H         5.29741950334638    2.90556208275248    2.23371061684470
H         0.17914286101807    3.39008861998209   -5.28102997619619
H         4.30069434440984   -1.65054938268971    1.23737543647266
H         4.68986698405155    0.04162536157745    1.47324731379673
H         5.26108294080573   -0.82539380129516    0.03976977508618
