36
 energy: -50.515763780368 gnorm: 0.313848951048 xtb: 6.4.1 (79825abcba525fcdf90b791dcacef51065a7a4e7)
C         3.50987634834067   -0.46872948223840   -3.81443320151852
C         2.99098067604877   -0.68795587166431   -2.40088135280389
C         3.29748311002359    0.36888057348043   -1.27160103646756
O         4.71570044245942    0.55622223961906   -1.41534135080044
C         2.45058579912344    1.70156801661585   -1.34973833899303
C         2.82773490150442    2.63759991165500   -2.57745463682215
N         2.90487528228134    3.97556677700339   -1.98091452735708
C         2.22332600637337    3.99199213222888   -0.67806768147760
C         0.70842887873875    4.20457994839433   -0.69813827622223
C         2.61259252038059    2.61192906933264   -0.12144362986115
C         3.99880845472771    2.75962223936268    0.48435637169156
C         5.25931193559952    2.93741033915485    0.76644188308451
C         1.74309666922652    2.43208046322296   -3.62231204478450
C         0.73503329487044    2.14998012403063   -4.39966165093641
C         2.89374798145724   -0.30700233131129    0.07898076072346
C         4.03977430341211   -0.73569135411902    0.95137806665817
O         1.67456894956697   -0.46109545735376    0.26135206313433
H         3.47870644076957   -1.33034261332361   -4.50280244365714
H         4.50224832461101   -0.00727784935992   -3.83631642701845
H         2.84446203269030    0.21070945739626   -4.34080928534522
H         3.38780203141956   -1.68442874947396   -2.15288785805738
H         1.91007226204164   -0.87574389026152   -2.38572098556586
H         4.92214941689892    1.32630544142109   -0.85884567431618
H         1.40633885204104    1.35391154620158   -1.28654540467639
H         3.79480129716973    2.38424778729558   -3.01026446176483
H         2.59317906864689    4.71576767789588   -2.60693997661695
H         2.61723650839884    4.79696021902705   -0.04619170964821
H         0.23680543830216    3.35024372135376   -1.19468404523617
H         0.48343938659356    5.16161542095393   -1.18231205191346
H         0.29965116583879    4.33778512969507    0.31017983418688
H         1.97889792795021    2.16271964358289    0.65056411680446
H         6.23719975519270    3.15406151894803    1.13118409080276
H        -0.07077736381534    2.07673511651611   -5.09325095209475
H         3.68889222286231   -1.28877316118247    1.82089360805582
H         4.50872988879520    0.17557079079870    1.33618153444236
H         4.75551854901699   -1.27402919885651    0.32384885802085
