36
 energy: -50.519254204858 gnorm: 0.307105992507 xtb: 6.4.1 (79825abcba525fcdf90b791dcacef51065a7a4e7)
C         3.20062982788096   -0.56994185336068   -3.75055765769846
C         2.96803263130641   -0.85808601318457   -2.27464666443198
C         3.36892618158010    0.31901768636590   -1.30519718069969
O         4.74842261158452    0.63576486095246   -1.55770342341098
C         2.47077212717445    1.60717168575570   -1.48788511369296
C         2.84737708275262    2.67192553168442   -2.60598726083858
N         2.83430503992355    3.98552596652885   -1.95310970452441
C         2.12362829343084    3.92118956039064   -0.66742369708417
C         0.62326736169305    4.21703125628055   -0.71106415765461
C         2.50433750042607    2.49546500039631   -0.23348498188452
C         3.87373109528863    2.68687442965203    0.39780353039182
C         4.94353860548322    2.63840561106066    1.14158613978768
C         1.82860856181716    2.65562539069859   -3.73392802158765
C         0.85301515116283    2.60949637149940   -4.59771873888757
C         3.11485276881150   -0.28838250866841    0.11268949653471
C         4.41328735734563   -0.63989545765874    0.78256555410274
O         1.97902579944242   -0.40927996311661    0.60124080463102
H         2.73981720265625   -1.45469915974796   -4.22178712065280
H         4.26121678878846   -0.43684393045871   -3.98647897879233
H         2.66734724949656    0.31690487921695   -4.08312018171426
H         3.53505687274949   -1.73612770556135   -1.92902771261267
H         1.89671388140514   -1.00200074889115   -2.08643967761396
H         5.02358709891322    1.25880309937787   -0.86384132474541
H         1.45716065754295    1.21353218984843   -1.66940588919698
H         3.80576954123281    2.45175117950488   -3.07474755393299
H         2.42564524095337    4.69532813040119   -2.55820294360244
H         2.44113350260114    4.69847059021199    0.03786418498359
H         0.05842860167387    3.53717409715630   -1.35730573591071
H         0.45951773095355    5.21503925764575   -1.13311569610767
H         0.19387045972809    4.18443529882041    0.29695571180988
H         1.79258229637882    2.14856861151770    0.52310033064830
H         5.83583450582624    2.81563417989597    1.69713746748110
H         0.26402421444271    2.79818277258906   -5.46561786535326
H         4.16605732661070   -1.37480637272733    1.54667173656471
H         4.73658444937467    0.30616056193578    1.22849015179402
H         5.18420356503923   -1.05830453151314    0.12948637825215
