36
 energy: -50.516694596663 gnorm: 0.308293620025 xtb: 6.4.1 (79825abcba525fcdf90b791dcacef51065a7a4e7)
C         3.26349679157086   -0.41494663263652   -3.70035609618029
C         3.01016107303990   -0.80620063872455   -2.25184545067161
C         3.37930442263398    0.36096607889745   -1.25807681769573
O         4.77375630063336    0.65856947805023   -1.44256195825775
C         2.43346860806960    1.62091818650714   -1.38965050140721
C         2.80887357947084    2.54051579544093   -2.63025351907804
N         2.89729207015067    3.92917559706933   -2.16574062523297
C         2.23255718238651    4.00572828301218   -0.85636813185034
C         0.72335090673868    4.25369679156838   -0.89266901598964
C         2.45782922857347    2.62215788773054   -0.22318706458308
C         3.78306533628072    2.57866925596007    0.51995458956793
C         4.91463784807360    2.64691296225308    1.16411009809055
C         1.72477105367640    2.37063681308745   -3.68204639724881
C         0.69698543001968    2.69281569013106   -4.41682686041380
C         3.17122415293658   -0.18826843767247    0.19069335103076
C         4.33870172064317   -0.88959329061290    0.82580535320587
O         2.04528191968036   -0.03223317715785    0.69200022588668
H         3.19315931300811   -1.35208286107076   -4.27830877714303
H         4.25201019054808    0.03438071274741   -3.83879317712379
H         2.46865047906001    0.24719394074095   -4.03393437600567
H         3.55850935103759   -1.74489658158432   -2.07838003881854
H         1.99917159596348   -1.20371013506465   -2.09775569871123
H         4.88350230111589    1.61189297171288   -1.28614301407103
H         1.46013208860568    1.14973353233615   -1.60391927701381
H         3.73175119457778    2.20527670264904   -3.10210173636498
H         2.57319060399140    4.57037864725094   -2.88738919495084
H         2.71036081891921    4.76859985067087   -0.23015969793461
H         0.20640577512098    3.38716596819618   -1.31783818508788
H         0.50787244689718    5.18063915923720   -1.43609177298737
H         0.27608263648779    4.34660399616181    0.10375840040748
H         1.72672841120699    2.34472329963541    0.54354336016133
H         5.85386703719410    2.51844316317033    1.65153520244899
H        -0.18675340463809    2.44149845069155   -4.95683345348164
H         4.03259643746413   -1.93353492098513    0.78630305619565
H         4.52579960201878   -0.54973835388447    1.84946777317403
H         5.17186509730551   -0.63153376116445    0.16615814513875
