36
 energy: -50.515938127968 gnorm: 0.307500933684 xtb: 6.4.1 (79825abcba525fcdf90b791dcacef51065a7a4e7)
C         3.12520209640414   -0.65548874114397   -3.58256192148100
C         2.77473925090915   -0.82436314703467   -2.11147422450283
C         3.31075613059143    0.38994761737902   -1.26044170225359
O         4.66685115818545    0.70190827967729   -1.62208436943256
C         2.33763071264542    1.63263661932911   -1.35070421211302
C         2.73151869815481    2.53685623439810   -2.59686777745970
N         2.89220465301747    3.89559328679748   -2.06773665624924
C         2.17164715954262    3.94746060461561   -0.78699632199425
C         0.68092263565080    4.21431874340105   -1.00387612898875
C         2.48059358520643    2.58197772364321   -0.14986099830021
C         3.81069712334663    2.53009215334208    0.58398775778399
C         4.99174850473714    2.63466706141087    1.12641895656378
C         1.76128852248215    2.47917974915845   -3.76551322516222
C         0.86140038752011    2.72736816621842   -4.67581463366560
C         3.26628828846008   -0.15203039520702    0.20522313454429
C         4.51720246751619   -0.82516548014552    0.69545834215060
O         2.27084252776174    0.06656030894365    0.91565071304479
H         2.59287488810981   -1.44478229649229   -4.14009613668060
H         4.18801187319525   -0.86904007619216   -3.73438364893892
H         2.83943857407552    0.25373468021572   -4.10518726253907
H         3.05415071506234   -1.78061184856474   -1.64302591419070
H         1.69578674331761   -0.70682768101199   -1.95052674055920
H         4.94426105896650    1.57098500404554   -1.28580153367191
H         1.27982584665177    1.36007012387139   -1.49925195924007
H         3.72290835883882    2.23434375610723   -2.93207192119784
H         2.56692815297592    4.58979307874759   -2.73799154883789
H         2.57514118622968    4.79857403384374   -0.22556524734512
H         0.24529440302687    3.51482248700667   -1.72485448547241
H         0.67159588057568    5.14594266925393   -1.58089544334319
H         0.13108983599491    4.27293730137848   -0.05741112221267
H         1.76907324817440    2.35205731321851    0.65028231655627
H         5.95418499898891    2.58059707706854    1.58142624011040
H         0.15752506279988    2.66798304979939   -5.47380881206407
H         4.82761001833294   -0.42579082858805    1.65941998064171
H         5.35394299725895   -0.76682852587366   -0.00800013614956
H         4.26915718765496   -1.87770981156533    0.85829059100920
