36
 energy: -50.521286203546 gnorm: 0.312620930580 xtb: 6.4.1 (79825abcba525fcdf90b791dcacef51065a7a4e7)
C         3.11774656074632   -0.43973111949853   -3.71923728540640
C         3.10001201704319   -0.82744308375493   -2.24790907635859
C         3.43598931400810    0.37586286478406   -1.28598645530555
O         4.80769444840751    0.70004164794768   -1.56959134439585
C         2.37554379204575    1.54249125854270   -1.40358676484088
C         2.73131229553178    2.46147049776882   -2.65041891392340
N         2.89762087839087    3.80776326766546   -2.09202538271248
C         2.22278948428954    3.91209591513501   -0.78975566768724
C         0.79908758690303    4.44932013776210   -0.94778339362176
C         2.30555930042076    2.49455476382150   -0.19843590352238
C         3.58233540503389    2.42476350214987    0.62337522743372
C         4.54814592187574    2.54183940655534    1.49144963954035
C         1.61352574972402    2.53775350848554   -3.67761874825343
C         0.79215443599242    2.73277450677258   -4.67127903636015
C         3.33736664248103   -0.16811657928218    0.17628947460269
C         4.56398837205161   -0.80364834325149    0.76766599643015
O         2.23419181422794   -0.19562556364280    0.74694703853985
H         3.00288236404206   -1.30971050565693   -4.38792484732231
H         4.11437580497329   -0.05316585937452   -3.95485579245268
H         2.34273699566336    0.28420445911734   -3.95748656897245
H         3.87113029387707   -1.57808634924876   -2.01588006697675
H         2.13273173599138   -1.22603564824671   -1.91722794570185
H         4.93753842822357    1.64433427675397   -1.37778747084089
H         1.35348197777143    1.13139241714094   -1.44478693609131
H         3.67261786402951    2.26718356278880   -3.16318150799878
H         2.57611857001076    4.51591333777625   -2.74938336656438
H         2.78484584183500    4.63271434048621   -0.18377869644429
H         0.12315352303070    3.74895747475106   -1.44926324369870
H         0.75939487053565    5.31184853138429   -1.62263943039653
H         0.31055519563717    4.74214764335387   -0.01122778648141
H         1.46160889489722    2.32903359252073    0.47957911526552
H         5.38194982077004    2.40097131278219    2.14042302585277
H         0.01058602398450    2.72884882704511   -5.39577691776830
H         4.71605533464085   -0.29838724123040    1.71985392952996
H         5.40222474624544   -0.63722646012508    0.08352033546360
H         4.33812279556555   -1.85060056570936    0.98849660123920
