36
 energy: -50.516482643461 gnorm: 0.306889805106 xtb: 6.4.1 (79825abcba525fcdf90b791dcacef51065a7a4e7)
C         3.50474770938738   -0.58401747851581   -3.68792978723475
C         3.11011632585330   -0.80277632191125   -2.23470839148130
C         3.38064236040156    0.38993657836693   -1.23953368413193
O         4.77053235942433    0.70563109854819   -1.42832292114055
C         2.37431072428771    1.60608174909943   -1.32719181068450
C         2.54069717422769    2.51860650013661   -2.61765631563431
N         3.01369724503336    3.82002184419221   -2.13334740173901
C         2.33679828391364    4.01004914292008   -0.84188057607734
C         0.89121869434606    4.48849949740501   -0.98984898973691
C         2.50969981640998    2.62888387064660   -0.18734225687920
C         3.92014458528799    2.66775626537978    0.37793299748549
C         5.15721617159370    2.80349551696026    0.76687860369675
C         1.31721123932679    2.47714606925659   -3.51863831500449
C         0.24349902373935    2.39410009416284   -4.25368269069540
C         3.05978518477591   -0.25110337233555    0.14971411840917
C         4.22698891551860   -0.77691542410378    0.93672418310942
O         1.88731171017120   -0.33990693656111    0.55073955195973
H         3.22426686915956   -1.49346758944839   -4.24599068794387
H         4.58371466044535   -0.40266970933640   -3.72201698968298
H         3.04490782418533    0.30791246515493   -4.10565400914955
H         3.65879565045293   -1.70834855066347   -1.93335128567593
H         2.05063931417302   -1.08796446378756   -2.22893146761144
H         4.99798376322071    1.47033683089586   -0.87260018623052
H         1.35267234382835    1.19514698611066   -1.27525218896781
H         3.31679081219185    1.99748109062256   -3.17697380853880
H         2.78767995355408    4.60106232952145   -2.74641486870134
H         2.86834024738821    4.77057975392735   -0.25753248004554
H         0.52844448785301    3.88522047848958   -1.82849436627489
H         0.84566234910950    5.54226906167012   -1.28726409071012
H         0.35129505168807    4.27848997281805   -0.05929715508576
H         1.76966888564712    2.51091315536288    0.61127596320015
H         6.14256187539323    2.95208293566943    1.14536883702575
H        -0.67167829101631    2.29265721752819   -4.79026595590930
H         4.17389872982452   -1.85025024304216    0.76291737571250
H         4.08446279089186   -0.59608244187768    2.00694728517478
H         5.16896806415876   -0.37737815169934    0.55080239612551
