36
 energy: -50.517713682016 gnorm: 0.302279191674 xtb: 6.4.1 (79825abcba525fcdf90b791dcacef51065a7a4e7)
C         3.51264210458944   -0.43228346371497   -3.73811490730808
C         3.04502202767245   -0.75494684173768   -2.32649824919577
C         3.37205811619271    0.38163036710602   -1.28373234992307
O         4.78057251420968    0.62509887289590   -1.43835728320525
C         2.47727549542135    1.67243346208712   -1.46425320984436
C         2.79614744913390    2.65193619261160   -2.67445136201235
N         2.79507594253319    3.95465846350064   -2.00000370545976
C         2.15213794662504    3.95795589555871   -0.67757828619027
C         0.64813713264324    4.21144514635814   -0.79688662300425
C         2.57268452744807    2.55464979090597   -0.20874422019573
C         3.96194065362145    2.65131665620969    0.40037359242933
C         5.02062296403002    2.95326475609364    1.09899295770280
C         1.67174469768362    2.50099117263472   -3.68605377425316
C         0.59412001851109    2.60260615620377   -4.41299549496005
C         3.01636076846984   -0.26289040011204    0.09538451643757
C         4.18244687979855   -0.91181072416614    0.78630655960342
O         1.85833147878022   -0.30068798793232    0.54364894725606
H         3.18675910177218   -1.32362472535974   -4.30070889850458
H         4.60721396236685   -0.42734507345813   -3.74844409935754
H         3.03460395814372    0.47060791461925   -4.10926441739406
H         3.61441268842251   -1.65036013340074   -2.03331660043842
H         1.97303194124581   -0.98475083148317   -2.36990979594775
H         5.15908305386568    1.19074968357483   -0.74401897844543
H         1.45895451589112    1.26722867253035   -1.58317139485085
H         3.75899356977514    2.51402159075260   -3.16499797511114
H         2.41646170640121    4.69809617937881   -2.58387988857204
H         2.67050589876808    4.70889572692351   -0.06947435318672
H         0.20989956548348    3.37214304223583   -1.34679259279693
H         0.49725208815418    5.18693199722111   -1.27293338698894
H         0.18054096691565    4.24332597510565    0.19401483151244
H         1.91065917027393    2.12616001851638    0.55117212900272
H         6.03310499828567    3.06551788835158    1.41286965920587
H        -0.31279322010014    2.30735608995227   -4.88849267167377
H         3.86449527104635   -1.57832212402226    1.58614674796473
H         4.89769270933884   -0.19785219534283    1.20711336258627
H         4.60749963251286   -1.62721622367670    0.07678876647942
