36
 energy: -50.516374489721 gnorm: 0.305920238276 xtb: 6.4.1 (79825abcba525fcdf90b791dcacef51065a7a4e7)
C         3.29053615232981   -0.32147922361799   -3.81221056971993
C         2.91591737584340   -0.74592149668421   -2.39978311574604
C         3.38491606950868    0.36489398042111   -1.38378593388971
O         4.78744468560265    0.62393349629185   -1.56519870970100
C         2.45546988853374    1.64374272303705   -1.39227345677658
C         2.83896009996963    2.66070994264282   -2.55175499518238
N         2.99603445981502    3.91924661469815   -1.81461240629823
C         2.15701550904445    3.90372315500614   -0.60713762368545
C         0.65461738394181    4.06245900099449   -0.84820303284131
C         2.52015548756034    2.49326606685777   -0.11249331638367
C         3.90187407894728    2.60392495500604    0.51121325816229
C         5.11976509593851    2.86941990997442    0.89371004270377
C         1.69488184604840    2.63414723149477   -3.55214729612686
C         0.81037962212868    2.34918361604472   -4.46674905438584
C         3.04832043688408   -0.24201474526967    0.01701960121909
C         4.19285493060453   -0.66300649622579    0.89510525932000
O         1.89447563563301   -0.42345688474017    0.44024817739261
H         3.32605172419039   -1.15263214757373   -4.53686526906256
H         4.27519325257038    0.15577087196956   -3.84223342777308
H         2.56703897065189    0.35226971093481   -4.26398426377329
H         3.52199184043348   -1.64068110266066   -2.19000905421941
H         1.84498497158478   -0.98297790585498   -2.37212047964966
H         5.03868465544554    1.23275184747943   -0.84996766521178
H         1.39188395224319    1.37282270818502   -1.49570153881022
H         3.80158266424179    2.40991930250150   -2.99581684562781
H         2.81665265224141    4.73368879800133   -2.39896321802987
H         2.44121518086826    4.60935937520643    0.18261830571589
H         0.43509793181706    3.73489869339904   -1.86966875269035
H         0.29851483537760    5.07627453864844   -0.63295795546702
H         0.04440338017298    3.43212532520862   -0.19103746805153
H         1.85669219503653    2.07509971915478    0.65190662698436
H         6.07683752382616    3.05811024383543    1.32341636731413
H        -0.13034770476578    2.39008176875329   -4.96586950560911
H         5.16327898007491   -0.52509375994527    0.42146801332835
H         4.07760644868948   -1.74304236247322    1.03160458483046
H         4.15838917042107   -0.11727588556049    1.84214305165101
