36
 energy: -50.516898502749 gnorm: 0.302101766360 xtb: 6.4.1 (79825abcba525fcdf90b791dcacef51065a7a4e7)
C         3.62130473953848   -0.36991998669424   -3.80306683450734
C         2.99904056837114   -0.70770693666614   -2.45617075328508
C         3.39428087371814    0.35407601321160   -1.35957459809469
O         4.74524482322853    0.75020083930404   -1.65125956690053
C         2.43558862648726    1.60671060491926   -1.46546182451159
C         2.87241604149376    2.69823272969222   -2.53478205357472
N         2.81661653954737    3.97902045644489   -1.82173554792829
C         2.01014922801061    3.80035672948962   -0.60523282400151
C         0.51331486839465    4.04203959981823   -0.80915933601913
C         2.35259281543977    2.37583530156356   -0.13682709213100
C         3.67404409333364    2.48263605680037    0.60665235729872
C         4.71761309375868    2.57788713449903    1.38250084983100
C         1.91567628414753    2.65031173324236   -3.71493374307839
C         0.82462506473549    2.87088253844880   -4.39390398258600
C         3.20126943169113   -0.22038780178001    0.08147669888432
C         4.33196424064072   -1.03431262923711    0.64475574620115
O         2.08773867221539   -0.11503296179553    0.62217170729596
H         3.17106772894833   -1.04926545946882   -4.54669129300602
H         4.70679799777507   -0.50263126318095   -3.75499674916545
H         3.40040192904302    0.65601970613636   -4.08614803062186
H         3.34292291118017   -1.70249949711001   -2.13358920243257
H         1.91378319950871   -0.77343470492298   -2.60366136658047
H         4.94576081849489    1.53260193396715   -1.10998457485098
H         1.39786360247955    1.34213758820118   -1.72706832931405
H         3.86453333840045    2.57412828140576   -2.96725220169686
H         2.45695133527429    4.81223322151852   -2.28364159994374
H         2.42775098876246    4.52084694116110    0.10814574586325
H         0.32340602715960    3.71867020554437   -1.83786902834657
H         0.33174527119518    5.12037416427764   -0.73712833823278
H        -0.10179260294464    3.56081767875299   -0.03999321914405
H         1.61146148347936    1.93745106372066    0.53985416269182
H         5.70167606869231    2.87253427984745    1.66718021242635
H         0.08090724340799    2.97815792147389   -5.14964043410917
H         5.22350091421104   -0.81538175208062    0.05968598412236
H         4.10857273814312   -2.10533066612017    0.68228362341565
H         4.48815368648041   -0.69344081121126    1.67203449552864
