36
 energy: -50.517182133855 gnorm: 0.309530751794 xtb: 6.4.1 (79825abcba525fcdf90b791dcacef51065a7a4e7)
C         3.09346329091384   -0.34119901423151   -3.80872651634303
C         3.19084129532545   -0.79352439872063   -2.35911931634646
C         3.42098354281883    0.32624884830277   -1.27318033354931
O         4.79296613547695    0.71237222942533   -1.46204825033960
C         2.42855525319074    1.54797866037006   -1.42102716892964
C         2.84475976706995    2.59037042681220   -2.54613948289799
N         2.99288799234722    3.85040487353665   -1.80970391912379
C         2.03377084458538    3.86973914132662   -0.69529393398098
C         0.56450775335802    4.14768412715784   -1.01859299436276
C         2.24104548959872    2.43547062504340   -0.17969342876340
C         3.53640223078028    2.48565872406260    0.61399015865942
C         4.57326945081365    2.67915762017087    1.38048507073013
C         1.71498362916162    2.56200619879389   -3.56260727822185
C         1.02522438510560    3.11706313246191   -4.51978481828980
C         3.25332976007934   -0.33438135213597    0.13371372134841
C         4.57114707620638   -0.68808315087469    0.76338047861420
O         2.13295583770823   -0.69670150888663    0.52980444956118
H         2.96068187206371   -1.21962584087790   -4.46289497608131
H         3.99156403938854    0.16872659617071   -4.17150681196437
H         2.25542068620487    0.33718198591236   -3.94645478868053
H         4.00979452164672   -1.51542841980937   -2.21735768560882
H         2.29022741948345   -1.36858427057243   -2.11000495010774
H         4.90447453237535    1.65606486522630   -1.25626477513252
H         1.42227014370825    1.18121951103450   -1.68215563350360
H         3.77737795741479    2.40023460651981   -3.07604585583798
H         3.02674896279803    4.71109156097199   -2.35287206523764
H         2.43821331604116    4.59595495299746    0.01985866638868
H         0.07397249064502    3.42335335214164   -1.67707370342568
H         0.53877964796579    5.16849280846317   -1.41639836967127
H        -0.03016805490415    4.18873781743884   -0.09868890628056
H         1.38498402880540    2.10429994542091    0.41766631697653
H         5.46786695798934    2.86738226191382    1.92866934033520
H         0.37430556931788    3.26013367743881   -5.35140812267134
H         4.96502761843415    0.06609234897249    1.44246252640039
H         5.26900365249406   -0.86243008724741   -0.06184136563542
H         4.40171970954314   -1.68456953235419    1.18075276805952
