36
 energy: -50.516158876530 gnorm: 0.307166915059 xtb: 6.4.1 (79825abcba525fcdf90b791dcacef51065a7a4e7)
C         3.45773636613646   -0.62030364361602   -3.66069470544671
C         2.95242417798532   -0.79628020410229   -2.23621809223623
C         3.31622520740265    0.43386277612085   -1.31942033696776
O         4.69469495884517    0.75425507708767   -1.57293268293896
C         2.37732828951287    1.70164638019169   -1.42234579164244
C         2.68026203884914    2.58536013899637   -2.70802290219628
N         2.88237349862459    3.91558394174291   -2.12353878779785
C         2.27496519087539    3.99075615256654   -0.78652966331258
C         0.81611454789173    4.44569537080077   -0.85929518578257
C         2.49726351184813    2.59590620590486   -0.17750594445936
C         3.86180281762543    2.49733770708418    0.48485216994031
C         4.86756701392395    2.52501341916814    1.31414242158875
C         1.49590690550538    2.36637497784167   -3.63525199435904
C         0.56333774750403    2.51868280118154   -4.53367389276675
C         3.16280723280024   -0.16302450021149    0.11727011728370
C         4.40849211675711   -0.77998668470987    0.68810679455021
O         2.06693456209122   -0.18483028229291    0.70206845381690
H         3.30556362730400   -1.52914922450796   -4.26736112088150
H         4.53626315170030   -0.44722281690692   -3.58969025484374
H         2.96527956548881    0.24266130121972   -4.10144755298769
H         3.44793240639197   -1.71788869156729   -1.89411350103958
H         1.85604733904200   -0.83836656062975   -2.24283243375360
H         5.01035882705787    1.37178354481341   -0.89149914507669
H         1.33626833287648    1.34317598711447   -1.47714731647175
H         3.54897284432879    2.10344440889604   -3.15504397687062
H         2.53769991852179    4.65140896577916   -2.73731515355764
H         2.90119344365379    4.68545527505285   -0.21413325003050
H         0.30353433334555    3.69594941175988   -1.47086634365153
H         0.64181561207122    5.43492135332395   -1.29748834480427
H         0.29329140824775    4.41678944878936    0.10370463841066
H         1.70032434470513    2.41245458434210    0.55090833948436
H         5.66148405837668    2.69941605935322    2.00372102069766
H        -0.23673647625986    2.37235184907350   -5.22231768223021
H         4.12103508439384   -1.76967316821845    1.03876919684639
H         4.72554817550967   -0.30820763708961    1.62367706486044
H         5.19002816535112   -0.87388611435874   -0.07102077669456
