36
 energy: -50.517967978277 gnorm: 0.308739809004 xtb: 6.4.1 (79825abcba525fcdf90b791dcacef51065a7a4e7)
C         3.22091931097007   -0.28307609218460   -3.91130775600568
C         3.32682388351333   -0.68753003329445   -2.44821412390696
C         3.52675500668390    0.41974708005434   -1.34363911362831
O         4.87580301718079    0.91686634108285   -1.33727809827598
C         2.47713186013587    1.59681345145366   -1.45410315039330
C         2.89479375618427    2.65438466190809   -2.56441217613814
N         3.01526631855260    3.89118011006106   -1.78480364859168
C         2.05286978582068    3.85001050063440   -0.67381890936245
C         0.56652699094448    4.01542022028556   -0.99620755249440
C         2.29502135380203    2.41801505602581   -0.16717852886269
C         3.54332979841380    2.53767371825876    0.69177976746198
C         4.57622407782233    2.62652773320696    1.48252892201936
C         1.87123278946719    2.72358105160577   -3.68599148551081
C         0.70504243973822    2.81347345382177   -4.26215484236615
C         3.18805104721054   -0.30248905197630    0.00081078005601
C         4.34511828849806   -1.01708488917316    0.64016658124150
O         2.03549167262845   -0.20744231808460    0.45465489957295
H         3.25134944637540   -1.22677700083769   -4.48201220558744
H         4.12944521332740    0.28342090923532   -4.13908057478098
H         2.34161263353494    0.30259207052037   -4.16684215783278
H         4.05925700440593   -1.48118604211814   -2.23472404470113
H         2.39716085555315   -1.21498728399729   -2.20047903461141
H         4.80322016760070    1.81967433244601   -0.98371592073137
H         1.50977831350343    1.15101590095038   -1.73835956170941
H         3.84663024704227    2.30863294365650   -2.96589954150566
H         2.90705329703967    4.74435236907353   -2.33009880232102
H         2.38618956792164    4.61797230480506    0.03437522894586
H         0.26575823047869    3.22897711525302   -1.69615194655320
H         0.28528003054496    4.98736572760509   -1.41713924190253
H        -0.05475271323535    3.83097463143289   -0.11216026596149
H         1.55861056027792    2.04522066993257    0.55259739254419
H         5.48877575200733    2.50774009371732    2.02046770375879
H        -0.03000790010508    2.85226731230270   -5.03284142425179
H         4.71815006847150   -1.80592866362891   -0.01071572897888
H         4.14969328868039   -1.34319861686129    1.66673885997081
H         5.19627462189861   -0.33068338339269    0.65678691236197
