36
 energy: -50.500576625170 gnorm: 0.301038158696 xtb: 6.4.1 (79825abcba525fcdf90b791dcacef51065a7a4e7)
C         1.37112404814125   -0.62933080451118   -3.08727309178111
C         2.18480284574313   -0.85133636391851   -1.82074945431842
C         3.30066345596911    0.24488938396752   -1.62259477986649
O         4.33356092946898    0.11452585111267   -2.61417269115939
C         2.63607412180608    1.67924704745839   -1.60427932340920
C         3.51824843552336    2.92823814165916   -2.03726229709529
N         2.93626222800394    4.01995484453804   -1.24896487449628
C         1.71598310911925    3.59635085492223   -0.54634999446471
C         0.37239008105248    3.77886101049093   -1.25483962310922
C         2.06431327408421    2.12786406114884   -0.24945694838844
C         2.87140878065655    2.08072673914396    1.03770136002941
C         3.12705317687032    2.36461778039903    2.28433753474999
C         3.15783537748317    3.00888237374691   -3.51171283459489
C         3.31870465420510    3.04949364232733   -4.80497099563206
C         4.05927537234246   -0.02305769935183   -0.28222047700889
C         5.35481770394223    0.70015946099638   -0.04398806720896
O         3.73155294066595   -0.96242162527755    0.46181911870080
H         0.82976852099889   -1.56847223505103   -3.29257418624499
H         1.99494473855502   -0.45009867228134   -3.96871635078743
H         0.66210524471181    0.18451665757742   -2.95909386568878
H         2.67942873727960   -1.83419388224779   -1.85628098245583
H         1.48937622911897   -0.79524553697358   -0.97393612082551
H         4.00437338326055    0.49702013104688   -3.44523853641585
H         1.75613609585697    1.76877800063913   -2.26230923145730
H         4.59985039512701    2.86797201749782   -1.92222193620003
H         2.79613781058928    4.86770729343197   -1.79544517058826
H         1.68458378340202    4.20969887076748    0.36206877273541
H         0.22364023061727    3.28269049611702   -2.21949762656331
H         0.31650334964518    4.85011635011128   -1.47900493649396
H        -0.47425786073193    3.39493601212663   -0.67403232892756
H         1.16979662114919    1.54344120119346   -0.00936570103950
H         3.77862526265268    2.45614764962091    3.12297651241770
H         2.93732822497737    3.11702492541455   -5.79782212264407
H         5.14515164073321    1.43644812528658    0.72995905358578
H         5.89591594713418    1.16454803853893   -0.87461895983791
H         5.99180754290074   -0.00973853698545    0.49096907916787
