36
 energy: -50.518158408650 gnorm: 0.307510217880 xtb: 6.4.1 (79825abcba525fcdf90b791dcacef51065a7a4e7)
C         3.41288839926222   -0.18163569518170   -3.91736015904087
C         3.20647947480497   -0.63456354346996   -2.47941249562856
C         3.43235737916607    0.42039430731678   -1.32955852649293
O         4.80790524353591    0.83648642270012   -1.37238370318570
C         2.44390698296505    1.64971883782069   -1.43502562685480
C         2.84399156475715    2.70539905570766   -2.55357649637746
N         2.66392102310613    3.98542377096616   -1.85997906031840
C         2.02012691564678    3.88245704463641   -0.54198205371715
C         0.52964193002984    4.22342345560602   -0.59400253623850
C         2.33732173253558    2.43792381983181   -0.11931904578821
C         3.62442457981315    2.46716845140303    0.68871099903651
C         4.65726988502262    2.66264225460625    1.46011909737471
C         1.95799094700646    2.62920032331289   -3.78629786177273
C         1.08833071339894    2.57156299383157   -4.75604720202802
C         3.14850811903332   -0.40800397721691   -0.03453852819656
C         4.34491517338359   -1.11732820601407    0.53440519257100
O         2.04190507580841   -0.47793753379073    0.52576539019686
H         3.00877403404846   -0.88884201414990   -4.66150515170241
H         4.49476285881859   -0.07359584946240   -4.04422100580452
H         2.85314197026764    0.72130492351134   -4.14728936411412
H         3.88086429977362   -1.47243018467049   -2.24465568616994
H         2.20110099967186   -1.05579599934097   -2.35437443116412
H         4.87924626265691    1.76100388676684   -1.07995479333742
H         1.43087992006709    1.30856651305772   -1.70465743922804
H         3.88833330641976    2.63064946542117   -2.85439517161331
H         2.11783864496691    4.68133779320578   -2.36441684555849
H         2.51410063610728    4.58915642222756    0.13549289238946
H        -0.00622158011898    3.49880499784340   -1.21581854476490
H         0.45510223979083    5.17736241531622   -1.12823629570863
H         0.18160053764906    4.28685901337733    0.44349029371329
H         1.57475361375512    1.92755107423807    0.47847977126015
H         5.53135569571210    2.66271048683172    2.07021187227723
H         0.34905123677017    2.67842937965295   -5.51618349549792
H         4.07341776175591   -2.08998682513523    0.94097543340390
H         4.67412249368149   -0.58236158787742    1.43096807495834
H         5.20730908315582   -1.23836443993821   -0.12704573835150
