36
 energy: -50.518666650744 gnorm: 0.300363209511 xtb: 6.4.1 (79825abcba525fcdf90b791dcacef51065a7a4e7)
C         3.37068995067459   -0.21689512916898   -3.81979771979397
C         3.11708244887389   -0.68095213127406   -2.39299145888463
C         3.45390629544861    0.41399236107801   -1.30958603294865
O         4.83221577403944    0.77454409351522   -1.50288374422060
C         2.44695469953022    1.63055417658582   -1.38322127402831
C         2.83889679946507    2.64458562670563   -2.54244777114889
N         2.96568729830052    3.92589316698067   -1.83949595795210
C         2.11550647737959    3.89973381059165   -0.64003883676555
C         0.66706474047315    4.18612919206350   -1.04066828110481
C         2.28389732781425    2.46782358675479   -0.10411863723944
C         3.45418304347239    2.38147083351604    0.86199530124287
C         4.72413562428048    2.54737628219424    1.10642476725603
C         1.75625560886613    2.76613342931638   -3.60240980472240
C         0.72186071445957    2.68735592800448   -4.39226174705208
C         3.22519202036554   -0.36827673734224    0.02444386410000
C         4.41906112546301   -0.77558767347393    0.84114577659754
O         2.04939779696228   -0.66004230131526    0.29972969378902
H         3.34296585191150   -1.08358048847558   -4.50191855475283
H         4.39036307964455    0.15905504484666   -3.95074353100983
H         2.60352308562534    0.45354888230377   -4.19853918145618
H         3.76028298132644   -1.55631366028830   -2.21421385698466
H         2.05289208741843   -0.91147990428217   -2.25803589402259
H         4.96042580088432    1.60694851935586   -1.01708356539872
H         1.49525738526154    1.12316320119491   -1.61155585631456
H         3.80111707443167    2.36112770772943   -2.96731575857401
H         2.63098218888061    4.70522389003005   -2.40303467764697
H         2.47798986503921    4.62910223140085    0.09415041299715
H         0.35821436724194    3.38628763960815   -1.72165411169011
H         0.57589441520352    5.16970385820014   -1.51525258603122
H        -0.02355750575541    4.11286849818038   -0.19259868645241
H         1.45032028624930    2.19556091532375    0.55191205399949
H         5.57850671722644    2.37478192937811    1.72002110293756
H        -0.02348901669461    2.70767189815040   -5.15370957769486
H         5.35648877502360   -0.57505099866820    0.32530720177352
H         4.40846732226639   -1.78792732683306    1.25761658432246
H         4.29061116930123   -0.18971503066725    1.75555499829831
