36
 energy: -50.517231701845 gnorm: 0.294477785870 xtb: 6.4.1 (79825abcba525fcdf90b791dcacef51065a7a4e7)
C         2.90838511460647   -0.77497150634656   -3.57981865014310
C         3.04775544155592   -0.91986828431547   -2.07150084356948
C         3.35397501121176    0.39250976492079   -1.25295671109123
O         4.70284996429362    0.72817103568705   -1.62033453285219
C         2.31244598974418    1.56852743659769   -1.43070959292681
C         2.74891717551590    2.49890501304159   -2.64296987239681
N         2.96613765538715    3.82011864976405   -2.04365701077359
C         2.22374727066985    3.91416628629551   -0.77787634446800
C         0.79660168742854    4.39039125658345   -1.05532003260243
C         2.32673651863478    2.49181755460799   -0.20146490137047
C         3.63222424964786    2.45757954200724    0.57630830384934
C         4.87595266280249    2.77113598755475    0.81055589580964
C         1.60155308484291    2.45149710210769   -3.63881803356167
C         0.93811164405682    3.02783061391008   -4.60200544731786
C         3.26719038649474   -0.15902056204200    0.20723973763401
C         4.51627542706229   -0.69897451831164    0.84478498838457
O         2.18173996631485   -0.18770920534147    0.81087525308583
H         2.72493852838636   -1.80433653189402   -3.93189245886265
H         3.84309168095799   -0.40724542651876   -4.01492759436953
H         2.05686616094475   -0.14027314598417   -3.81124624055030
H         3.92085638799419   -1.54583419645917   -1.83111036707878
H         2.17013442427190   -1.43635385252825   -1.66298990569802
H         4.87366536296962    1.53575430494850   -1.10655625457041
H         1.34049290543495    1.05533931503931   -1.51588720990663
H         3.70972925327294    2.29084307416013   -3.11230926507968
H         2.79389374207201    4.60044618878313   -2.67483110923978
H         2.79685879811309    4.64546762961093   -0.19551229626733
H         0.32961479050769    3.63277387850661   -1.69314125477476
H         0.82392535096610    5.35462628727055   -1.57538314364838
H         0.26686439812517    4.54613595482792   -0.10839329370737
H         1.50751439479810    2.31441119040316    0.50334430382424
H         5.79117616685085    2.61665789652926    1.33471397931420
H         0.13786583790290    3.43559325575343   -5.17567615634664
H         4.57452715064673   -0.43515796384506    1.89933823768253
H         5.44984077206155   -0.40938560156843    0.35184914596518
H         4.49648374384731   -1.78565913551373    0.72389165944853
