36
 energy: -50.518863974882 gnorm: 0.303673428955 xtb: 6.4.1 (79825abcba525fcdf90b791dcacef51065a7a4e7)
C         2.87873199484571   -0.49452111282383   -3.68323810051182
C         3.04673667973197   -0.82731955606193   -2.20795460772702
C         3.43674802630344    0.37793332104406   -1.26913742926979
O         4.78271728778706    0.74983693367761   -1.61141363925704
C         2.39720502490968    1.56121582695482   -1.40547948789399
C         2.77199676752114    2.47622992325657   -2.64965182646078
N         3.03090117917479    3.81465661872124   -2.10785062444361
C         2.34389463171091    3.93098623384982   -0.81298440140751
C         0.89214819770662    4.34731827445002   -1.05713526139967
C         2.45246242094987    2.52171495852558   -0.20627168449326
C         3.77011664623509    2.52280521709698    0.55148005989317
C         4.83639227718230    2.91983903868681    1.18824557285822
C         1.60482867757490    2.38488576481589   -3.61907444736968
C         0.62697046801645    2.61532321375417   -4.45018013544346
C         3.24847304951873   -0.20186378416339    0.17040373170466
C         4.37740430247179   -0.77178448816941    0.98215015843036
O         2.10783258520076   -0.20903302262889    0.66263275776207
H         2.65185507431534   -1.38617893324140   -4.29206825958573
H         3.80464844415684   -0.11497966368286   -4.12691100273587
H         2.02214209211856    0.17097138305075   -3.75294277824019
H         3.85887869435683   -1.56440554838277   -2.11279292787606
H         2.15544924480816   -1.32471606255871   -1.80538709910304
H         5.07148005709781    1.53715376842251   -1.11939228740540
H         1.37831584115942    1.14590578274786   -1.47398087431267
H         3.64212939313125    2.05298875652375   -3.15011679521585
H         2.92512425982804    4.59063100798168   -2.75872292349617
H         2.93048033043661    4.63711366987080   -0.21322810850284
H         0.48739415803895    3.55086724273480   -1.69015712810408
H         0.85482715094282    5.28130993104725   -1.62917384178524
H         0.28292303092220    4.55284343924064   -0.16935581165847
H         1.59511386542622    2.38077941970750    0.46039504367998
H         5.77445545300090    2.79733837080294    1.67943828397838
H        -0.24428231263723    2.67547160074306   -5.06096857863812
H         4.17146854431480   -0.59923482147360    2.03708715614385
H         5.28376229643970   -0.31654463953673    0.57024773147804
H         4.30848169397115   -1.83933414799239    0.75526303355844
