36
 energy: -50.513465322790 gnorm: 0.296974262679 xtb: 6.4.1 (79825abcba525fcdf90b791dcacef51065a7a4e7)
C         3.62030047072393   -0.12905812174954   -3.81991930108061
C         3.08524832981804   -0.59258890066880   -2.47295969177123
C         3.38480942354134    0.35926014199413   -1.25215356582289
O         4.77254973364665    0.73008770902596   -1.31349132139941
C         2.51590429285026    1.67974605275807   -1.27893301695336
C         2.73945163143884    2.71851923789579   -2.46073727700602
N         2.52916703076049    4.06207510469480   -1.91064265220151
C         2.07880687251753    3.91410506880149   -0.51871243960319
C         0.55186243900536    4.00852258002899   -0.52469232088769
C         2.62877814746186    2.56452430368925   -0.02667973812241
C         4.06293714958218    2.81593080905775    0.40965074454475
C         5.17419566117102    3.19174342865937    0.97878982892900
C         1.94098113902421    2.36641122010595   -3.70527340377254
C         0.96422269414755    2.37658341357182   -4.56891932174136
C         2.91323586369778   -0.46266249311266   -0.00879018528274
C         4.01016242328836   -1.16210075342524    0.74338393447436
O         1.68447126094905   -0.58049857887105    0.13140146521064
H         3.58950206185302   -0.97652598982493   -4.52564633115152
H         4.67832356234603    0.14512308443132   -3.75966624221613
H         3.09801121299962    0.73156214008054   -4.22983631800568
H         3.60173693653944   -1.53539139773797   -2.23570638502329
H         2.01383328764489   -0.82817959499915   -2.49355110984583
H         4.89834778313794    1.57454955496806   -0.84830771018712
H         1.45174300699554    1.40600619080310   -1.36802459409184
H         3.76731958771961    2.71848657402549   -2.82159256060985
H         1.90908035348852    4.59750866035841   -2.51542624093621
H         2.44598342416226    4.75790366060849    0.07760263596602
H         0.17630873359642    3.23596391110986   -1.20365423445334
H         0.32280198774402    4.96984523806910   -0.99834986907553
H         0.00535734755608    3.87474647736462    0.41604376870958
H         2.04371801495841    2.08957374228564    0.76797774244855
H         6.23239536838402    3.23751686818244    1.09861215838747
H         0.48149548577795    2.25381100228104   -5.51107809768869
H         4.80563569859978   -0.53232072236272    1.13793985204557
H         4.33841479843442   -1.85965265363814   -0.03383127179564
H         3.62258937074855   -1.79341214364037    1.54782375316007
