36
 energy: -50.515917253202 gnorm: 0.309662738947 xtb: 6.4.1 (79825abcba525fcdf90b791dcacef51065a7a4e7)
C         2.75155909583948   -0.79444796345708   -3.49404110754387
C         2.91205465366088   -0.96641396703275   -1.99067467320592
C         3.32060032790137    0.35397607145358   -1.23187191858125
O         4.66083405415186    0.70124658642768   -1.61952554743482
C         2.40256276866860    1.63875826619726   -1.30893081948643
C         2.70825121887114    2.45964001420735   -2.63497464088919
N         2.83991107568067    3.87323417219258   -2.26567349114962
C         2.23237070244523    4.04793216271541   -0.93805742457058
C         0.75732374590701    4.42683542294103   -0.79252904268588
C         2.48629907214708    2.71480514529568   -0.21402321518123
C         3.85105394779989    2.69427906374175    0.45487464695015
C         5.01063358720820    2.63288424553968    1.04788022143265
C         1.66044260159474    2.25676493537189   -3.71726120224370
C         1.05595240419884    2.56338923868742   -4.83109151717414
C         3.23925100032219   -0.09803412680392    0.26243729487456
C         4.58099620477577   -0.59196696855354    0.72501468409422
O         2.18741699301860   -0.11735525755668    0.92324998377145
H         2.40457607767836   -1.73303035279449   -3.95865584358469
H         3.70873548663735   -0.52116813642206   -3.94939824272971
H         2.04417666224184   -0.00802886459741   -3.74432166810320
H         3.67008515506642   -1.74818942622325   -1.82898655911348
H         1.93678078137437   -1.30924674491881   -1.62302846192807
H         4.83802507695981    1.51256850221174   -1.11386079038200
H         1.37880715075906    1.23265175056301   -1.35701405351270
H         3.59607819345939    2.07231818265633   -3.13344645281431
H         2.34245874133280    4.44343562637352   -2.94712139939680
H         2.84806882495263    4.82463332437369   -0.46895458011716
H         0.14683737064232    3.52773905269663   -0.92597889062062
H         0.40176665247364    5.13961965611059   -1.54517716786721
H         0.68287183009391    4.92973782539348    0.17860140135977
H         1.77679114343786    2.51435447222586    0.59577424476250
H         6.02853025072939    2.51931871814070    1.34322486091308
H         0.45461635416611    2.65817857339745   -5.70583246700307
H         5.21616960710782    0.25167936220934    0.98938302338434
H         5.02122121170637   -1.13314037932138   -0.11862329083706
H         4.43953309257447   -1.24976419097195    1.58709436315980
