36
 energy: -50.517012732757 gnorm: 0.299099994190 xtb: 6.4.1 (79825abcba525fcdf90b791dcacef51065a7a4e7)
C         3.42467006966569   -0.59061607008571   -3.67698145455883
C         3.05980794985516   -0.78804127112706   -2.21296619029794
C         3.40381570599993    0.41546209362520   -1.25413389328294
O         4.75641302122974    0.86825146348083   -1.43458021724351
C         2.37897087207429    1.61159725676207   -1.38959636994720
C         2.69537564873361    2.52548778468788   -2.65069772542219
N         2.88477092047152    3.89208671846972   -2.15219707316464
C         2.20042794259195    4.00766548697654   -0.85585400050861
C         0.74675473578573    4.44875068356950   -1.03692795548241
C         2.42223087805466    2.62019008094441   -0.23003591890040
C         3.78192991370707    2.52533613266545    0.44273657376628
C         4.85702804833402    2.40378464017429    1.17036225988051
C         1.56503808201328    2.57076839818784   -3.66592777784344
C         0.39164084303258    2.65280055448214   -4.22847065371178
C         3.22152413237584   -0.20802361446633    0.16781065746740
C         4.40376133085714   -0.88889442456659    0.79785654396768
O         2.11503605702313   -0.21873530761357    0.73258573989398
H         3.20567467354050   -1.55553555805323   -4.16501052168045
H         4.50368132848033   -0.44974310367697   -3.79575914252330
H         2.92497685987761    0.26708289899466   -4.11986342646971
H         3.52813149637870   -1.69783031879848   -1.80690818345196
H         1.97177474839658   -0.92083642937366   -2.26202104767473
H         4.87304752754089    1.68298771326878   -0.91695294945404
H         1.37639807722281    1.17205608703051   -1.51983238235005
H         3.57356755858831    2.10848233757970   -3.14224071944980
H         2.64519259488610    4.51497983215645   -2.92133046233304
H         2.73068782925425    4.75273697968510   -0.25079261803680
H         0.23684655154137    3.73483670515924   -1.69205942008930
H         0.61585540207353    5.45714796900457   -1.44553741426547
H         0.25540789946518    4.39730677242143   -0.05841885324305
H         1.69229762749767    2.50729909419024    0.57854740004974
H         5.83284360285844    2.26572899205168    1.57651968288683
H        -0.15943916743926    2.71079435087914   -5.13880539717742
H         4.72602250332646   -1.75663046070621    0.22491945794777
H         4.13070206882456   -1.27227138053498    1.78621502841892
H         5.27283025026167   -0.22694290850634    0.84714924957505
