36
 energy: -50.519281052438 gnorm: 0.310736902746 xtb: 6.4.1 (79825abcba525fcdf90b791dcacef51065a7a4e7)
C         3.48149149585966   -0.41723096245016   -3.77499209772666
C         3.02385236173479   -0.78534827646712   -2.37124787142877
C         3.42179144397816    0.38773920848381   -1.39573194585230
O         4.80737971988981    0.73350836160501   -1.56212730981549
C         2.42487000146549    1.60803336921135   -1.52389651855945
C         2.89060816986409    2.76544084962473   -2.50836611412472
N         2.92762557839263    3.98565179954658   -1.69492831299591
C         1.98968083323802    3.78995951838985   -0.57951210430324
C         0.48617316720022    3.91459557865137   -0.83336301968926
C         2.28097713008340    2.33439077321521   -0.17652458019034
C         3.58598083713222    2.33112425577327    0.60280605977826
C         4.75533957705187    2.54704206413075    1.13762337335226
C         1.84945795950179    2.90687689415122   -3.60673192920486
C         1.00530103613710    3.25553326837422   -4.53726007840956
C         3.20970614314238   -0.24746182132845    0.01686510813478
C         4.35690763538641   -0.89065319447985    0.74381852283942
O         2.06841984917247   -0.35583583094045    0.49553218335117
H         3.24522141856498   -1.24595379514312   -4.46390130190178
H         4.55476567135044   -0.21104795998421   -3.71343118348744
H         2.96316577116127    0.47306885993978   -4.12167630598135
H         3.54927636005538   -1.71153690030274   -2.09190861288467
H         1.95898951429958   -0.97225459451733   -2.18419084953833
H         4.86839005252275    1.65257594940301   -1.25079265927108
H         1.41764759868568    1.26730930725986   -1.81496389544931
H         3.83915253749352    2.47763924717794   -2.96020999807179
H         2.67233737020147    4.77372772976447   -2.28714789686407
H         2.32581135910191    4.44023491529148    0.23692193487193
H         0.16412358139489    3.04021766428335   -1.40836222912501
H         0.15304118470689    4.79806567664131   -1.38965887837965
H        -0.04111581226826    3.90110325542650    0.12753892395287
H         1.47943735691313    1.98852341139715    0.48473458160515
H         5.76491290321632    2.78115192275101    1.38700960697286
H         0.31996676985558    3.42007932933583   -5.33663690704034
H         5.31351010526178   -0.88930068970730    0.22421783093651
H         4.08849226796334   -1.87540166873593    1.13956513018435
H         4.50386268671948   -0.23869407361159    1.60940727587655
