36
 energy: -50.502728212529 gnorm: 0.304026871662 xtb: 6.4.1 (79825abcba525fcdf90b791dcacef51065a7a4e7)
C         1.51607609167268   -0.90507163477069   -2.93290290548385
C         2.24838703641310   -0.87536427550352   -1.59938127620707
C         3.36735289469462    0.23061780751452   -1.49526532477836
O         4.32728143989694    0.00542902064792   -2.54165234626006
C         2.56469144746356    1.58305776579003   -1.65662548965716
C         3.39512625285717    2.86185139800674   -2.10467611436987
N         3.01732061489096    3.93772564978519   -1.18178739285688
C         1.70718865599938    3.58845773078441   -0.61279239621748
C         0.51608576600708    3.99579819802154   -1.48219298733575
C         1.86314767729306    2.07596545828925   -0.38046338479798
C         2.71150154707693    2.00303736702314    0.87865489127520
C         3.17987674850100    2.30507488890291    2.05740336221297
C         3.26321433106830    3.26637448990667   -3.56391073600258
C         2.75682419469809    3.78620524698719   -4.64714193303099
C         4.10935422501134   -0.06663873576403   -0.15177601692187
C         5.48550739157935    0.53535074088401   -0.10662286213858
O         3.63752527910983   -0.91430277346085    0.62426819579394
H         1.02156103604934   -1.87775194570637   -3.09584106757234
H         2.18639694273383   -0.63784486079514   -3.75599368977375
H         0.75091284572843   -0.13796321670146   -3.01982327969187
H         2.83640958700879   -1.79726329275428   -1.47187497684978
H         1.56289205267815   -0.79531874696341   -0.74641789680314
H         4.13916951060963    0.53319950564155   -3.33626481106359
H         1.74869959369421    1.35446043747486   -2.36175712955305
H         4.42476889080803    2.55702676125640   -1.92124476760367
H         3.11640176585201    4.85704422193817   -1.60839735732760
H         1.57032513813216    4.02210799478837    0.38501629866498
H         0.69782365782495    3.70433033640500   -2.52185379179559
H         0.50164174921814    5.08572992249815   -1.36904872034976
H        -0.46141444865591    3.56979068501552   -1.22810799448627
H         0.94529573310277    1.54630551404587   -0.10412648709735
H         3.79895350468553    2.23507484633533    2.92232139674994
H         2.47115651088657    4.16616340226869   -5.60096977654764
H         5.39379067581245    1.51687403898787   -0.56843999170663
H         6.14500176959188   -0.06097691207198   -0.74525596668519
H         5.85487207139696    0.68593526060557    0.91160324318746
