36
 energy: -50.518735567194 gnorm: 0.301968079090 xtb: 6.4.1 (79825abcba525fcdf90b791dcacef51065a7a4e7)
C         3.29018049076169   -0.54192049937686   -3.69035207149597
C         2.92594757690749   -0.73825342435476   -2.22603327661227
C         3.39574844157855    0.38838804745922   -1.22799159740049
O         4.80947769947998    0.52491611344343   -1.45121399301454
C         2.49424916192125    1.67735123074389   -1.38695466668538
C         2.78383441707028    2.65081780176758   -2.60932435263158
N         2.86129228546805    3.98677027272014   -2.00832738520776
C         2.11913913074957    3.94530031584915   -0.73959649784274
C         0.60573044303336    4.10181531720541   -0.89961813995966
C         2.59047087724559    2.60025984014027   -0.16111111070665
C         4.04366420375640    2.75466076987837    0.25696916560001
C         5.03841859577918    2.73015430252780    1.09953256008435
C         1.68016106546231    2.61406014279949   -3.65381432828181
C         0.72329739696489    2.65112165619794   -4.53873417090063
C         3.09962690601309   -0.24528623642586    0.17009991344724
C         4.26557965148103   -0.81621224742798    0.92695217491859
O         1.90497810716442   -0.35469316121169    0.49297119288717
H         3.09792135616686   -1.44278467953225   -4.29754324655551
H         4.37415697031147   -0.42102889574778   -3.78308200280238
H         2.75109708120525    0.28157874858268   -4.15157146703556
H         3.48253398281222   -1.60414693620286   -1.83569218973216
H         1.84534552786250   -0.92839007493133   -2.22814012678695
H         5.14201859102734    1.27063170546264   -0.92332995259332
H         1.49533375664968    1.24838346052848   -1.56988832474434
H         3.73717027790657    2.48584155213858   -3.10998653351287
H         2.39198365434884    4.63743330449980   -2.63550104674444
H         2.46540992935443    4.75294735386969   -0.08369318561705
H         0.18526306747028    3.31592931196210   -1.53559544605601
H         0.37546134710997    5.02296402683787   -1.44681336350342
H         0.09518396274247    4.21686959419779    0.06352933444245
H         2.02748174512364    2.22589237879735    0.70042597788640
H         6.06650736037554    2.76356340835279    1.37909751003559
H         0.00825474718065    2.85730179252784   -5.30160080894512
H         3.97277337754857   -1.47546420558381    1.74225968404593
H         4.79080342614183    0.07295019087780    1.29016270936752
H         4.83139671969393   -1.40249062364147    0.19755579482132
