36
 energy: -50.514259441821 gnorm: 0.308485326879 xtb: 6.4.1 (79825abcba525fcdf90b791dcacef51065a7a4e7)
C         3.63678176537848   -0.31026402689682   -3.87453898898837
C         3.12362089136810   -0.70119430032901   -2.49639487145352
C         3.46289201184218    0.35300399173013   -1.37403926211379
O         4.84677271991089    0.74229373665734   -1.39468503371741
C         2.50689875789813    1.60867754644556   -1.46761880337391
C         2.78496702896074    2.73709339842136   -2.55161150025390
N         2.92758016468282    3.98856065551874   -1.79964255656812
C         2.08516912526945    3.86455892096910   -0.60082799940687
C         0.59444803438002    3.99428762315066   -0.91931007056831
C         2.41418154395165    2.42555349781255   -0.16845425218924
C         3.72664074775347    2.54762296659236    0.58848131367358
C         4.69285679358951    2.59067938169443    1.46290832281464
C         1.58185205558448    2.78521927237220   -3.47929874767276
C         0.61082825195852    3.08851109703185   -4.29487930482457
C         3.11028260145986   -0.38971878676806   -0.04440758119519
C         4.27863288124487   -0.85535848223571    0.77800652611104
O         1.94334283279271   -0.70909939566008    0.23781412088783
H         3.89704134477336   -1.26825823437086   -4.35590477737461
H         4.56646892813935    0.26447670459587   -3.81476023683259
H         2.93844545192115    0.31036909032811   -4.43008034054876
H         3.71973250703278   -1.59627838726226   -2.26101946495534
H         2.04702131225151   -0.90744755796246   -2.54383022446058
H         5.05329393941562    1.63855608844529   -1.07940812842556
H         1.52732827049595    1.20496292986870   -1.77219430056294
H         3.69825906132669    2.60297695482527   -3.13009184078103
H         2.71219785660879    4.83085572176460   -2.32983993020996
H         2.40890607423353    4.58517847654911    0.15963777949081
H         0.38030416382041    3.33831461580004   -1.76943863780770
H         0.31329304891470    5.02930687786438   -1.14436213603128
H         0.03933767669077    3.60268250251928   -0.05905070449290
H         1.61319781859828    2.04590508857543    0.47469896879784
H         5.53663204517728    2.63205654730701    2.11296252587968
H        -0.13610338856431    3.05964399317082   -5.05449867924924
H         3.81692492425131   -1.23856143462464    1.68633260236511
H         4.94009214684835    0.01355847890371    0.85447026079951
H         4.86816195413177   -1.62764743217730    0.27609456702711
