36
 energy: -50.517469060812 gnorm: 0.311343118541 xtb: 6.4.1 (79825abcba525fcdf90b791dcacef51065a7a4e7)
C         3.44057590758494   -0.18635724707682   -3.85467687038936
C         3.06109532751708   -0.62419740885315   -2.44764728221927
C         3.47041023598941    0.42592850510188   -1.34500593437645
O         4.86244636288031    0.74242530509799   -1.51577996739286
C         2.49494717007420    1.66997309692043   -1.33013372150961
C         2.82166166497814    2.69798426561605   -2.49723918330199
N         2.70929327631013    4.03792731803481   -1.91081608528897
C         2.01089976141667    3.97450803114162   -0.61837126556995
C         0.49220744410391    4.11687782386056   -0.73590512338606
C         2.44759352838092    2.59313214344546   -0.10161984689939
C         3.83249919464397    2.68838705204615    0.51754440849929
C         4.83675873941161    2.65029455135670    1.34824389695446
C         1.83084951051773    2.50749831058024   -3.63408206703691
C         0.92663458741620    2.45672899453757   -4.57209200497182
C         3.18812206181565   -0.41863785945999   -0.06012773409997
C         4.30451736111732   -1.07425196656627    0.70280040630838
O         2.01116595778468   -0.52381874278277    0.32342514263901
H         3.06695223124895   -0.98465006635657   -4.51825421857001
H         4.51870469735555    0.00284098778785   -3.86248533356095
H         2.93160017747183    0.75949524177292   -4.02138633848192
H         3.51848424192199   -1.57608155711033   -2.13678056652492
H         1.98533428898953   -0.78539333060235   -2.30408110423994
H         5.10628078465274    1.57498631167836   -1.07677690002566
H         1.53145247341111    1.15651086450349   -1.48292301883367
H         3.80328578458614    2.48113132634758   -2.91690329079927
H         2.28447241355120    4.68552633129958   -2.57195338104740
H         2.43048088418991    4.70538252817704    0.08318450905717
H         0.02327117111446    3.25715261866131   -1.22564801723239
H         0.26740823229226    5.03824562077415   -1.28500266470054
H         0.00833018211500    4.21129608700768    0.24312308826198
H         1.82658083702677    2.22650379968104    0.72256508576292
H         5.75658976071951    2.90147484473145    1.82475053278161
H         0.21568128754669    2.44278690693481   -5.36588845125626
H         5.30066837585980   -0.76860634344556    0.38761966007612
H         4.10305415834527   -2.15020257842891    0.69119845032667
H         4.04466565489632   -0.78912450545111    1.72606469074709
