36
 energy: -50.515830031345 gnorm: 0.308183460504 xtb: 6.4.1 (79825abcba525fcdf90b791dcacef51065a7a4e7)
C         3.20692900960668   -0.69460028698167   -3.70233351800886
C         2.97125079697863   -0.79403300305104   -2.20232995645287
C         3.38424909690602    0.43614314089930   -1.30666253682750
O         4.74312472058519    0.82559637186078   -1.56911600942445
C         2.43467082295157    1.68691962075618   -1.48902385245372
C         2.85364515612498    2.66880170459478   -2.66633119922190
N         3.08838992698412    3.96762356559603   -2.02607907524073
C         2.18034974994785    4.03627735725186   -0.87154937576172
C         0.67902190020980    4.21949479344994   -1.10167063012864
C         2.37465175447903    2.63100677302678   -0.27707974331399
C         3.59937452355321    2.49371653901923    0.61264329801072
C         4.56581627543755    2.38928609720916    1.48162806392091
C         1.75604114348777    2.77273620746455   -3.71269081855687
C         0.59837139336737    2.63469937818078   -4.29646424896727
C         3.31817187052872   -0.14397950636846    0.14350382366901
C         4.53758676312708   -0.79315696342743    0.73496272324590
O         2.22643389228498   -0.26088910609354    0.72474545528107
H         2.82151666201604   -1.64666740877630   -4.10510701563433
H         4.27249346562368   -0.66461558155479   -3.95111441604490
H         2.71453802985240    0.13059255759993   -4.21036221574325
H         3.60858046602937   -1.66038536883063   -1.96744565302268
H         1.93413352680064   -1.07299397039534   -1.97777322233336
H         4.93735754945158    1.47167288531929   -0.86897637692612
H         1.39554211791942    1.34481827532877   -1.62499546824722
H         3.76478589218969    2.28279984120030   -3.12191237245324
H         2.94516178666465    4.80090548029831   -2.59360592682395
H         2.57210604147105    4.83201587122342   -0.22677531994338
H         0.25793695026394    3.33380325315300   -1.58861490120639
H         0.52389500629082    5.17691689120987   -1.61180785642156
H         0.28834500655721    4.31093521488034   -0.08159295079872
H         1.51064068598423    2.36327733848067    0.34030161592603
H         5.44164114549650    2.41649809487255    2.08861201144759
H        -0.23581877495707    2.50996325960441   -4.94787000327181
H         4.55967382178422   -0.56579114992623    1.79933669405996
H         5.41673895672111   -0.46517745072012    0.17112532835930
H         4.38058669085581   -1.84396964766980    0.47605336663217
