36
 energy: -50.518130658745 gnorm: 0.301599289373 xtb: 6.4.1 (79825abcba525fcdf90b791dcacef51065a7a4e7)
C         3.40024122430154   -0.37541472975515   -3.71931566252224
C         3.19310920156944   -0.86775866999038   -2.29448740832611
C         3.40734279434778    0.37323965968797   -1.34572601592287
O         4.78718614718290    0.72523691780976   -1.54378872076932
C         2.41763107223178    1.59399373835679   -1.51784954472091
C         2.79503046672383    2.70365608802356   -2.59111727364649
N         2.81945467638826    3.95106613439350   -1.81953596704452
C         2.02707808257497    3.83420848529403   -0.58638036397755
C         0.53701135842612    4.13519998105871   -0.75847044391031
C         2.36878401747674    2.38500142710410   -0.20041561747869
C         3.74778807171952    2.45418565349609    0.43516517395474
C         4.82432553946787    2.62071012675351    1.15167518398962
C         1.86048481119011    2.76735536839973   -3.78818542137703
C         0.84796484581022    2.99549552002867   -4.57736232138135
C         3.12010814731353   -0.26430868534429    0.05245827474021
C         4.32222196589938   -0.67851822174805    0.85344547645959
O         1.96335210818525   -0.55260426065289    0.40203318770184
H         3.17127084076795   -1.20182344442263   -4.41344978014658
H         4.41173469712803    0.03615548548330   -3.79487719237863
H         2.80813735557663    0.48446940899602   -4.02180127416736
H         3.85690886460024   -1.69862601986313   -2.00996040707443
H         2.14185658536715   -1.17277070196077   -2.21903688380628
H         4.98410607404347    1.43872312597991   -0.91331530589364
H         1.41792714817193    1.16421559386677   -1.69446456239026
H         3.79090086558079    2.43134907649085   -2.93870913603820
H         2.54089007840676    4.76503975344247   -2.36433728894990
H         2.43128817046374    4.53839612586003    0.15060018234817
H         0.04877942598007    3.37945736266284   -1.38245717006223
H         0.39036999843024    5.09229380973673   -1.27172391629473
H         0.06817562242228    4.14233391769772    0.23233246864176
H         1.70516006344306    1.95016414695829    0.55448417745714
H         5.78323958474673    2.50362627700394    1.60224642681105
H         0.19065830996974    2.79956305705737   -5.39303404412420
H         5.16934734769941   -0.06688972640662    0.54788996587826
H         4.54612364225339   -1.70687576427602    0.55221375425059
H         4.24268150818656   -0.59954484375360    1.94125376996669
