36
 energy: -50.518359434456 gnorm: 0.296764731455 xtb: 6.4.1 (79825abcba525fcdf90b791dcacef51065a7a4e7)
C         3.08171162044619   -0.55839453482882   -3.68462859874250
C         3.04211671156626   -0.84491891257751   -2.19071501789337
C         3.40540703891419    0.37662403171107   -1.26228946201350
O         4.77534089905192    0.76944165647292   -1.45222132219179
C         2.45219094253775    1.62865040395489   -1.41462245308491
C         2.74469186135565    2.60030539754763   -2.63773905919111
N         2.93625746549790    3.94694903268863   -2.08835793659897
C         2.18997138307131    3.98836247323494   -0.82205183785325
C         0.70174723191349    4.22140092062086   -1.08924406512024
C         2.49847484856316    2.60391861644278   -0.22701096216847
C         3.83958050073086    2.66205265445908    0.48605120401007
C         4.70774409430321    2.45489394848111    1.43653906386122
C         1.70298416624997    2.55705313557148   -3.74380399770281
C         0.68036211471847    2.77558543445687   -4.52260599768985
C         3.24403161427019   -0.21216454766188    0.17686894417509
C         4.40932960705446   -0.96960565765140    0.74835054671922
O         2.18608878285614   -0.03567344754098    0.80377352034065
H         2.89788022326133   -1.54834909808215   -4.13562411092638
H         3.99452144350605   -0.08686708681440   -4.06233048728742
H         2.20688619815910    0.03485180836925   -3.93805417867014
H         3.84326932576229   -1.54809725677828   -1.91572252647453
H         2.10066467211341   -1.32824522815072   -1.90102397408003
H         5.01152549793615    1.49688103259814   -0.85190012506492
H         1.41950959356788    1.25134465142385   -1.49536684799460
H         3.70733345360641    2.36804337179380   -3.09172648172947
H         2.57770329525115    4.60591540628721   -2.77695215627799
H         2.58452790430482    4.81579880948753   -0.22032049141921
H         0.41052583418747    3.49200853662633   -1.85216844553726
H         0.50434154275988    5.21783664535457   -1.50047180582068
H         0.10814206282931    4.16932764547210   -0.16920627766288
H         1.80273199154902    2.19387012311816    0.51268899764282
H         5.63367274914166    2.57064260025612    1.95180366160603
H         0.13287956484753    2.77351717821275   -5.43694748265675
H         4.07848815796873   -1.90998881948542    1.18572731975581
H         4.84364693620340   -0.31615128553283    1.51173615680418
H         5.09555248978876   -1.02222167226835   -0.10148477937335
