36
 energy: -50.507458495563 gnorm: 0.313842368992 xtb: 6.4.1 (79825abcba525fcdf90b791dcacef51065a7a4e7)
C         3.06621343914207   -0.41450877143428   -3.74151591073502
C         3.05282216696163   -0.80255386636000   -2.27022958424291
C         3.37559130139317    0.42532077255376   -1.33520818168017
O         4.76017813290353    0.79098326808687   -1.46291425943782
C         2.41865236963566    1.67864521345570   -1.44853095849532
C         3.01435908669471    2.81714556319974   -2.38375016483573
N         2.80285494806436    4.10883065664698   -1.72134414916759
C         1.84650513711858    3.84564122513194   -0.63584173962279
C         0.37247113011820    3.94684050751917   -1.03269456743572
C         2.22659080196886    2.44399356687512   -0.12903651263681
C         3.51501593048911    2.43877234990267    0.67739696110046
C         4.52394995589112    2.29763165750372    1.49114219905708
C         2.19755152766008    2.76095336459608   -3.66440361427473
C         1.41304755690782    3.15411697193055   -4.62877944156083
C         3.32455398891114   -0.29162464877708    0.05305526951132
C         4.60912566052717   -0.94081021295430    0.48509854605637
O         2.25126315868301   -0.27837489033357    0.67857324028590
H         3.23145643796267   -1.31016642103277   -4.36416597098679
H         3.78431088833155    0.36751147912994   -4.00797230375973
H         2.05374948782703   -0.12677189105158   -4.01282662641546
H         3.85738292222561   -1.51805883408470   -2.04075017421696
H         2.06167707081560   -1.16226869791204   -1.96675994568230
H         4.95363239809259    0.99877079682629   -2.39282637536472
H         1.42227525435560    1.35615840581610   -1.79283455059748
H         4.08303943319310    2.70217883045779   -2.56104665382914
H         2.53812578120404    4.86069145999650   -2.35505036821968
H         2.04775701946009    4.54167596469036    0.18722549595084
H         0.08640387121588    3.16394476397537   -1.74270621266277
H         0.18199161264959    4.92353217808142   -1.49177228073206
H        -0.27526135376895    3.88438243386946   -0.15060054253549
H         1.42295504637934    2.04195521258958    0.49697357734165
H         5.35252838561566    2.26183156342447    2.16078040545751
H         0.63460409025470    3.27542009153481   -5.34646538746669
H         5.22429821677474   -0.04996313798460    0.59924415915544
H         5.23154380434059   -1.45203670383152   -0.25627508931121
H         4.55941960249190   -1.43852510966116    1.45756939522097
