36
 energy: -50.494480944592 gnorm: 0.309378296458 xtb: 6.4.1 (79825abcba525fcdf90b791dcacef51065a7a4e7)
C         1.02875556517888   -0.79727054242482   -2.57988869855067
C         2.33609822972801   -0.89636455394965   -1.80756927397729
C         3.38388974505401    0.27574644111455   -1.68752840268155
O         4.16996783658535    0.28413380058450   -2.89131803053696
C         2.64884944006056    1.66495406976699   -1.51660662820883
C         3.55260138972035    2.92875236535550   -1.85086821415231
N         2.88553585970445    3.98993075545320   -1.08870672355994
C         1.53504938976827    3.58104302890867   -0.67496009729661
C         0.49978784585685    3.49710670728970   -1.79821339811942
C         1.91208578389816    2.14951972338192   -0.25720724925409
C         2.79966178463099    2.23159925193940    0.97400085470231
C         3.23761622223109    2.41517639331909    2.18830941312061
C         3.49440350615145    3.28099412277614   -3.32834721021729
C         3.03580166444429    3.66419879807466   -4.48717566396107
C         4.12777335690112   -0.03663312534637   -0.34851865132873
C         5.61258966467568    0.17597174250492   -0.25715473433819
O         3.47593095848656   -0.50474099209933    0.59983677032397
H         0.62090064930253   -1.81737473133012   -2.68109532560803
H         1.19416449767541   -0.47880575627312   -3.61402538713508
H         0.25957717289120   -0.21940046748428   -2.07400724927014
H         2.88189180569530   -1.71200920069755   -2.30632707735463
H         1.97845337611542   -1.27698864496992   -0.84264822226046
H         4.84869304885124    0.97610117404654   -2.81483278882596
H         1.97261110961462    1.63724791407116   -2.38680441012397
H         4.58442290858570    2.77727221674469   -1.53602347319283
H         2.92038849744259    4.81000344218021   -1.69138895133997
H         1.18931638488975    4.23425759364990    0.13509285536095
H         1.01546177100567    3.28246263849045   -2.73995916680869
H         0.03065952961252    4.47334848530192   -1.96504274901640
H        -0.33689508333146    2.82619496821789   -1.57152556912721
H         1.00089743653862    1.60490827799027    0.01202886955050
H         3.77393231362653    2.61138419927941    3.08836873095336
H         2.99423136689457    3.90880695848394   -5.52361213821253
H         5.83725696497326    1.22754392241446   -0.08746221381944
H         6.03338511272496   -0.23353556403221   -1.18107394150414
H         6.07907612423950   -0.28982582632846    0.61537799956260
