36
 energy: -50.517124785508 gnorm: 0.299279269819 xtb: 6.4.1 (79825abcba525fcdf90b791dcacef51065a7a4e7)
C         2.82573155580130   -0.64404568753210   -3.58698376393796
C         2.71121144916667   -0.85775477866044   -2.08476695034294
C         3.29867027369647    0.29658519111306   -1.18559374052181
O         4.63411775167822    0.58548337034046   -1.63304931417021
C         2.37277556544192    1.57061739091681   -1.32327939592013
C         2.66897334892734    2.36894644587940   -2.66515200161405
N         2.90356978675323    3.77608794420661   -2.32326983164973
C         2.39538961614905    4.00619565937691   -0.96275798459298
C         0.94449545354785    4.47874117347275   -0.85268254394774
C         2.62984795567189    2.65568009083519   -0.26485410083003
C         3.99451632549106    2.61513368775934    0.40330594153910
C         5.15307828601853    2.92756410762720    0.91337589364071
C         1.66243866549226    2.29551257704510   -3.80177012411359
C         0.78152348310802    2.33012346234759   -4.76241330382859
C         3.19147738679091   -0.11251784862777    0.31940970656945
C         4.45032658752349   -0.52984533932027    1.02606673392824
O         2.10687705260243   -0.11211969088001    0.92525083276305
H         2.48698856773740   -1.53565311342391   -4.14150189703032
H         3.84849457691391   -0.47537126007391   -3.93872709473155
H         2.20195008911630    0.16944585137875   -3.94838861698117
H         3.34262139615486   -1.74091754481751   -1.90236305612662
H         1.68927150585007   -1.08065908544148   -1.75339162007160
H         4.96260724187907    1.42680515363431   -1.27303672256960
H         1.36332705787524    1.12763695038745   -1.31368148087271
H         3.60511261019896    1.91891434443220   -2.99354730606857
H         2.37890943681167    4.40723775360560   -2.92604774516575
H         3.00228059626363    4.78585991559098   -0.48713907320278
H         0.25115027020770    3.72654124559956   -1.24299586499004
H         0.74810477711012    5.39792829164102   -1.41614253296157
H         0.67103104125757    4.65481068199005    0.19410539975711
H         1.95936839672648    2.50207949588992    0.58733012199531
H         5.88386267063713    2.93710801233552    1.68932842731327
H         0.12541021313562    2.20878200826584   -5.59340873273355
H         4.71917998749399   -1.52461422088008    0.67502866423947
H         4.26051569264102   -0.45205415978482    2.10138627162958
H         5.30842831576485    0.06428376399099    0.69962775698954
