36
 energy: -50.516861724560 gnorm: 0.304717556599 xtb: 6.4.1 (79825abcba525fcdf90b791dcacef51065a7a4e7)
C         3.23490546245042   -0.50287997589161   -3.69162879130251
C         2.97190289941626   -0.77245220882460   -2.21731463553486
C         3.29281556035829    0.37541560799687   -1.18506679753381
O         4.62481852209589    0.83376471165816   -1.47278680481198
C         2.32852698459789    1.62331088741971   -1.29597781928449
C         2.70599135851318    2.52635779640678   -2.54806065708042
N         2.97162810079415    3.86190276029662   -2.00242077715878
C         2.17371803351357    3.99271691983372   -0.77424476618349
C         0.68074479299539    4.25636897761161   -0.97925263594754
C         2.41025591631422    2.61784624647080   -0.12639193145295
C         3.80172268227578    2.65646006553766    0.48412487336517
C         4.97815929938292    2.73978312572828    1.04009614148675
C         1.60439840216643    2.45055524477734   -3.59264303323466
C         1.05160080387348    2.68175564770207   -4.75066118158123
C         3.15550463467364   -0.34322882599172    0.19644933543139
C         4.47368618413164   -0.83831235389457    0.72134681834843
O         2.02707221112603   -0.49463485580959    0.69355894753096
H         2.91450633562768   -1.40770780576982   -4.23553316605640
H         4.25462959268859   -0.26532105715458   -4.01092032439503
H         2.56001769436072    0.27563746791724   -4.03792686640798
H         3.53491249594167   -1.68081309313949   -1.95306691578233
H         1.92508090112802   -1.10063468513358   -2.19950610859990
H         4.85488666979188    1.44570146062660   -0.75310714105811
H         1.29789637490921    1.23759908625013   -1.23012178298580
H         3.60632902772259    2.12106443181530   -3.00834150167167
H         2.70787992076796    4.62180969151656   -2.62687103949865
H         2.66361394153906    4.80624677851011   -0.22599525686126
H         0.33099885387630    3.74926735965935   -1.88446116951659
H         0.52364708679695    5.33638240222710   -1.07851354717357
H         0.05358681194632    3.91780546393600   -0.14642860427629
H         1.72346745226516    2.45409910639038    0.71078331343937
H         5.92510022861299    2.98376890214903    1.46437555650140
H         0.30794073040516    2.99391943704694   -5.44728537256857
H         4.31621183670104   -1.69808729585499    1.37024116608435
H         4.96243842831834    0.00575630812865    1.21839921401026
H         5.11370489380517   -1.23036173228029   -0.07399191443227
