36
 energy: -50.516042933378 gnorm: 0.310497153171 xtb: 6.4.1 (79825abcba525fcdf90b791dcacef51065a7a4e7)
C         2.79450945171220   -0.72588772641688   -3.59360714138756
C         2.70512021990639   -0.83188079664731   -2.07827984830995
C         3.24129504323037    0.36818335470294   -1.20737017295330
O         4.58610066134143    0.51391509129933   -1.69456490650581
C         2.37647175446721    1.68577046176253   -1.33163296498711
C         2.81979758914926    2.51266345774281   -2.61436235088371
N         2.90563522820420    3.89025864720972   -2.11754297358364
C         2.22137215242959    4.05234528950883   -0.82614795531353
C         0.70625160601671    4.23972264151477   -0.92518931625325
C         2.56888428142432    2.69619510656156   -0.18894717146475
C         4.00944227996292    2.74894515293030    0.29314376019430
C         5.23385500684107    2.71711357426251    0.74018977368348
C         1.84790744012284    2.33613384730560   -3.76964249009248
C         0.99604392752102    2.40136512107599   -4.75458829826962
C         3.24049071846187   -0.16008598571172    0.26396316847619
C         4.49355866183444   -0.51664498707426    1.01290513649536
O         2.13144830922948   -0.18360340783346    0.82331401087181
H         2.26069281769715   -1.58814812414271   -4.02805826545321
H         3.84806966161164   -0.80891970698107   -3.87880041543806
H         2.35413142815416    0.18297270041274   -3.99550910404201
H         3.28336815689023   -1.70106802004443   -1.72889601662081
H         1.66644213777739   -1.04492812797580   -1.79611702516838
H         5.11830775735483    1.19784485607928   -1.25373338133241
H         1.30319840622852    1.45220036329093   -1.23761489728847
H         3.81192064906238    2.16056072694998   -2.89444194529611
H         2.47493089949889    4.51304990106683   -2.79841345544675
H         2.59746091018502    4.96185673153454   -0.34266834043552
H         0.21313890813497    3.59692298632233   -1.66175243777384
H         0.54529247164441    5.29131546024868   -1.18825987257846
H         0.20487721597494    4.08896981738379    0.03785043437652
H         1.92990003730034    2.53728589256443    0.68615334641012
H         6.23135616961933    2.74471994386869    1.11498109464260
H         0.19424810644786    2.30974937380970   -5.45064274517019
H         4.32119870183610   -1.29792337499158    1.75112672845854
H         4.59530859388877    0.38601379340778    1.62384361936671
H         5.41721774194395   -0.66125046757706    0.44560141009597
