36
 energy: -50.516476919171 gnorm: 0.301684266322 xtb: 6.4.1 (79825abcba525fcdf90b791dcacef51065a7a4e7)
C         3.67118068374808   -0.31813519045743   -3.80730644916738
C         3.04234076094864   -0.62684595597639   -2.45649196214163
C         3.31804189144763    0.40555157601595   -1.29706741932878
O         4.72211923421930    0.71230762785990   -1.33664167123299
C         2.38405570510888    1.68111139214468   -1.30071108002528
C         2.78106454117410    2.64254745228814   -2.50225556727340
N         2.83446786492883    3.95504983087377   -1.84922289236910
C         2.05544807640500    3.94782185689080   -0.60212023381625
C         0.54251912795705    4.15374542301876   -0.69778213269733
C         2.47725288419024    2.57438005004446   -0.05287426090503
C         3.90739204211806    2.76341752262078    0.42604996427195
C         4.98553456840362    3.16050573987979    1.04247479119763
C         1.78407653524782    2.60142130848924   -3.64887184414796
C         0.77500941301601    2.41325383537263   -4.45287515932477
C         3.02292453393593   -0.42669390189502   -0.00704255585655
C         4.19492993381305   -1.13875106698001    0.60745366412287
O         1.86967502488574   -0.57964005517825    0.42887547965204
H         3.95245123340034   -1.23631360641832   -4.35047883606937
H         4.51032275982667    0.37681611445942   -3.70194095880013
H         2.88843348415484    0.16929840444689   -4.38280673680169
H         3.40957762862079   -1.60490444194144   -2.10941150838574
H         1.95434802705521   -0.72422911272092   -2.55966903977897
H         4.87451293725600    1.45969963331115   -0.73371704756026
H         1.34402691473135    1.31572474290483   -1.31265960807788
H         3.74793336200084    2.30374215199229   -2.87253210593405
H         2.84070126495202    4.73489809801291   -2.50401872886962
H         2.46672941300139    4.77710159751778   -0.01428596428952
H         0.06932677491276    3.40466365006258   -1.34108785544317
H         0.27709575495992    5.10169725706917   -1.17934123032767
H         0.05323488088645    4.10187500041601    0.28173746120653
H         1.92914565153663    2.25551433270157    0.84001824418675
H         6.05105794869032    3.16516491136718    1.07209660180662
H         0.17696711857430    2.25866226993760   -5.32132701548233
H         3.87409828123657   -1.86599301385142    1.35126896139828
H         4.93058203769379   -0.42287822746197    0.98789262535779
H         4.71324947567811   -1.61465070595317   -0.22965729416400
