36
 energy: -50.517026404879 gnorm: 0.300571075096 xtb: 6.4.1 (79825abcba525fcdf90b791dcacef51065a7a4e7)
C         2.77197623698202   -0.95409111586412   -3.36897431809580
C         2.67962311181815   -0.94284344501104   -1.85016354918515
C         3.29588529858546    0.31064012880461   -1.11864397343650
O         4.62157598488700    0.55380420056489   -1.61915771314726
C         2.40933967706736    1.60066792473472   -1.34059318950536
C         2.80789771792465    2.41854549519816   -2.64363280357430
N         3.06342647094346    3.80039720052206   -2.22273255080756
C         2.28867155493353    4.03071575061087   -0.99436073524585
C         0.78696910609887    4.16934584321572   -1.25161779275044
C         2.46524404515966    2.69151488792015   -0.25863249319352
C         3.84685802092649    2.76413305614128    0.37086811708156
C         5.14815034539042    2.72683233151227    0.44364768058578
C         1.74316795743861    2.53552212166630   -3.72209114163088
C         0.74629420193262    3.05597111620622   -4.38195505289244
C         3.25302184282991   -0.13187877970432    0.38009904611784
C         4.55763515946153   -0.56179703379512    0.98951025869458
O         2.19955531857526   -0.01079888159951    1.02736206016694
H         2.33604689918239   -1.86944563327723   -3.80405211269964
H         3.80930613480194   -0.92902198907565   -3.71759567038880
H         2.19994314199908   -0.11942406596080   -3.76595582946202
H         3.23236817003586   -1.83938658694691   -1.52983644410834
H         1.63276183512951   -0.99763939787567   -1.52622520972805
H         4.91165199735089    1.38070047379399   -1.19792711924849
H         1.38352645801025    1.19812376817078   -1.30936018916642
H         3.67187652226251    1.96059294672134   -3.12378815395693
H         2.93808565361934    4.38940846015395   -3.04389951945944
H         2.68662695827720    4.88911756893664   -0.44011875507321
H         0.36172460706075    3.36717238446876   -1.86363218928544
H         0.69242912803845    5.12687088652893   -1.77618371090982
H         0.23828064082994    4.18960411937458   -0.30289295033477
H         1.72129445412475    2.59509145754534    0.53923681900011
H         6.18690054456559    2.80254583398039    0.67059418056411
H         0.13396855970421    3.15490066508309   -5.24857610209310
H         4.66608753617812   -0.18879316389592    2.00645725089220
H         5.37138419630387   -0.24119064785798    0.33116704477791
H         4.59396644340304   -1.65260709432583    1.05809458530737
