36
 energy: -50.517587620364 gnorm: 0.309691721280 xtb: 6.4.1 (79825abcba525fcdf90b791dcacef51065a7a4e7)
C         3.68899255247369   -0.54109420580868   -3.79362281128709
C         2.96476090052983   -0.68676082601221   -2.46331776456346
C         3.33608356274176    0.38543799177410   -1.36849804094225
O         4.74209458391041    0.65075162824933   -1.50935352896717
C         2.39437459674609    1.65259196315247   -1.45157241910754
C         2.85492069843713    2.75425459805224   -2.50034370408419
N         2.86055582388604    4.04444783230536   -1.80224932608930
C         2.00853887136947    3.90135924006655   -0.61238299210902
C         0.49987045696182    4.07275223511846   -0.79960955702334
C         2.33828946580968    2.47139264302537   -0.15152193488575
C         3.67355170720872    2.46086906927956    0.57467748715494
C         4.73028931209296    2.85787389505336    1.22716713029734
C         1.82520134974093    2.84761726049992   -3.61451013872048
C         0.81233921949018    2.86346852690698   -4.43542660832202
C         3.21928751544766   -0.30347579165920    0.02994659933858
C         4.35892519183374   -1.17472532193994    0.47758247829198
O         2.17114406922855   -0.21106249832107    0.69044382529190
H         3.62421516886272   -1.43001372456332   -4.44387426092824
H         4.73171531088373   -0.33403283057636   -3.53271388861421
H         3.35144989354118    0.34991868640064   -4.31673488917228
H         3.22820166593172   -1.66983582182190   -2.04368855088624
H         1.88481917341835   -0.71078134991069   -2.65568734547686
H         5.01530247159449    1.44700561629510   -1.02286222719343
H         1.33559543830319    1.40128745992922   -1.62804564971816
H         3.80671437613081    2.47270193674432   -2.94928240817171
H         2.67403310919998    4.86951933934720   -2.36919381588465
H         2.33957436541827    4.64733087307384    0.11997496746363
H         0.16088027588338    3.61596348552677   -1.73518769729956
H         0.13267152961110    5.10528609319958   -0.79917085072570
H        -0.01743212053706    3.58549356232673    0.03497134629312
H         1.58580004232498    2.13653121556172    0.57026848399475
H         5.51056310875952    2.81328908829521    1.95202865437158
H         0.12361770688748    2.98641400155320   -5.23935997814875
H         5.22922129515392   -0.94173241834643   -0.13346088744620
H         4.10466101201553   -2.23948914900912    0.48199379163792
H         4.57478003107332   -0.87401466755932    1.50659664663643
