36
 energy: -50.513244498185 gnorm: 0.313024623709 xtb: 6.4.1 (79825abcba525fcdf90b791dcacef51065a7a4e7)
C         3.22067117468054   -0.65459600048330   -3.71368123701933
C         2.98525528239740   -0.84010494622457   -2.22183421291311
C         3.37892932379231    0.35686565892716   -1.27399290025629
O         4.76792614303411    0.65223716030797   -1.49880855250172
C         2.48726814754782    1.65781804719694   -1.38289444277499
C         2.88180021288657    2.53863565073920   -2.64550653804272
N         2.98625266056210    3.89546486888585   -2.09771983446493
C         2.24344667166209    4.02267882098935   -0.83508568088019
C         0.71944493526860    4.11974991091089   -0.92731174136872
C         2.57235872832504    2.65402617313235   -0.21497308907552
C         3.96541873840555    2.87934754504852    0.34984161184051
C         5.10361533084397    2.80540503289100    0.98157803566834
C         1.67789621262411    2.46415402210924   -3.57042440482394
C         0.59522669910681    2.80788792604841   -4.21051702919009
C         3.04678206642801   -0.24822917375516    0.12865793757322
C         4.18226847612309   -0.73721055649904    0.98293861261546
O         1.84126301570832   -0.42481003410649    0.37144282966058
H         2.93614639293505   -1.57074195884382   -4.25858783323921
H         4.22280035404310   -0.37852808325044   -4.05681711970458
H         2.54096328955000    0.09401990383415   -4.11250034658143
H         3.50068271761602   -1.77000540371223   -1.93627187403740
H         1.93656075021817   -1.02934490923267   -1.96051985960492
H         4.92821162511208    1.57913156617983   -1.25281653143907
H         1.42944039069029    1.34918812107979   -1.41542236885778
H         3.78895461743868    2.11960333485741   -3.07934047326447
H         2.72534850268612    4.63748505912775   -2.74447700150818
H         2.72874911628400    4.78784275367583   -0.21750001598386
H         0.36714217377296    3.28430611843909   -1.54114657093969
H         0.47609511135141    5.02800166060067   -1.49018032197663
H         0.31373554863267    4.15099616049325    0.09051526792615
H         1.97612601028449    2.31906235530821    0.64039799702360
H         5.99267036673341    2.96415675315071    1.54780965203848
H        -0.29037914579103    2.69927173564058   -4.79332626816814
H         4.97948992297697   -0.00060959377001    0.89968008664177
H         4.62320110657084   -1.70212782370639    0.71292969205620
H         3.93062568379108   -0.75547127524964    2.04700290200571
