36
 energy: -50.511791785140 gnorm: 0.300250242399 xtb: 6.4.1 (79825abcba525fcdf90b791dcacef51065a7a4e7)
C         2.65354918799970   -0.74658939808514   -3.41813733707201
C         3.06174861428526   -0.92823213310322   -1.96355117325647
C         3.50072128679272    0.35238142942364   -1.15518680974328
O         4.85166628056746    0.74551465304649   -1.45097806470844
C         2.51698030800693    1.56498584512806   -1.40265506101716
C         2.88497033425391    2.43398949524890   -2.68136554171908
N         3.03623295735375    3.79916889113865   -2.16622386579927
C         2.15743891649104    3.98144618467344   -1.00145558705715
C         0.70671037589609    4.34017489858195   -1.32888515869537
C         2.36511899569273    2.62744559127611   -0.30182411848606
C         3.64599257139833    2.78250690015168    0.50174320737463
C         4.89642791317492    2.84980319808843    0.86496844168812
C         1.71114890060718    2.36215213583920   -3.64437543274805
C         0.68825413626614    2.82502915181482   -4.30730530577615
C         3.32746900931175   -0.08676430569449    0.33512376339219
C         4.40711493479516   -1.05441233565597    0.73040799989223
O         2.31080568131763    0.22699667278495    0.97649043506567
H         2.34729500223510   -1.69909893834444   -3.88304046391365
H         3.57548521206070   -0.45337603265225   -3.93026868654192
H         1.84425272341834   -0.03551627243374   -3.56270395205600
H         4.00276010953293   -1.49944339571684   -1.97543496286445
H         2.17988576219269   -1.32022074300327   -1.44151667197004
H         5.02056643247374    1.61508692082082   -1.05016194563506
H         1.48865443564058    1.19519828638222   -1.54795863966198
H         3.79045169457111    2.15239618031007   -3.21759103924972
H         3.09382113930666    4.51505232257940   -2.88813402923019
H         2.62604050670712    4.77001422473484   -0.40064001830262
H         0.14744409481783    3.62572132142463   -1.94179140610335
H         0.75791526457906    5.26418479826212   -1.91586486678522
H         0.13982607311592    4.49569125808964   -0.40367972208784
H         1.58098076830067    2.28580888574703    0.38210972899296
H         5.75144860015624    2.94189878080881    1.49480750614556
H        -0.16498583046452    2.59490239890071   -4.90294365435452
H         4.40783479392916   -1.17459456003885    1.81236488927533
H         5.33871909437639   -0.51993500485008    0.51865479555635
H         4.40175509413069   -2.02162584587965    0.22015349670195
