36
 energy: -50.516614458619 gnorm: 0.307444680669 xtb: 6.4.1 (79825abcba525fcdf90b791dcacef51065a7a4e7)
C         3.11059639678162   -0.49500337877269   -3.66219692173887
C         2.92141766016560   -0.80123913268677   -2.18372715610012
C         3.39266554379390    0.32854328492806   -1.18992727446885
O         4.79321661472007    0.59859236241203   -1.37056171750000
C         2.46508377953641    1.60241784726830   -1.31733237783781
C         2.80417121548722    2.34879560429952   -2.67881116311567
N         3.03956076444108    3.72337084844188   -2.22372789814741
C         2.28774898147370    3.97308143520728   -0.98493300037864
C         0.78024440258342    4.18694055943320   -1.13394289201874
C         2.62765668887226    2.67688685810328   -0.22976732084720
C         4.05482258164955    2.82249067183217    0.27262554900715
C         5.21991798560702    3.01788325447141    0.82437216920062
C         1.61778462551028    2.25351353201036   -3.62422831618957
C         0.42051283273193    2.44383403598396   -4.10418997863089
C         3.06422169383696   -0.05998588039328    0.28826781267950
C         4.14225227379200   -0.88478429599356    0.93308200270463
O         1.95966302252109    0.16504018239361    0.81048895643010
H         3.04762178109900   -1.41532714518275   -4.26737403163325
H         4.10341430811780   -0.05549653279172   -3.80135495631113
H         2.39607863840801    0.19658480137308   -4.10112223391361
H         3.54948405113371   -1.68557291904205   -1.99554498063323
H         1.88157986818029   -1.01344134298115   -1.90522262275280
H         4.90220338570963    1.44911245368690   -0.91222317800704
H         1.42883590183464    1.22826786236483   -1.35621941094142
H         3.74074259216707    2.03850466312652   -3.14063653192559
H         2.93303310195986    4.44610197476988   -2.93314410277086
H         2.71319403276455    4.88115574142610   -0.54130712302132
H         0.37367477373596    3.20186669226864   -1.38535366554456
H         0.62200320161451    4.82916561986460   -2.00770951373112
H         0.32444462753779    4.60509431805198   -0.22898861023575
H         1.96608655550358    2.56776193083564    0.63612563995423
H         6.21731530450977    3.03134623078353    1.20021327701478
H        -0.56160019222147    2.47283232025790   -4.51695492049704
H         3.79756201762650   -1.41905675241707    1.81672026096108
H         4.96850054871101   -0.23704116886888    1.24313744910706
H         4.39524386278772   -1.61747693703331    0.16168902536781
