36
 energy: -50.518252957603 gnorm: 0.303097322773 xtb: 6.4.1 (79825abcba525fcdf90b791dcacef51065a7a4e7)
C         3.27776821298159   -0.50572445395612   -3.86404490751126
C         3.24877299488130   -0.77376600917504   -2.36646193010350
C         3.48760948870582    0.44298980396910   -1.39250941899994
O         4.85348826313576    0.87153332865905   -1.52601679135486
C         2.47643169384024    1.65274526670061   -1.50830038276162
C         2.91799737493890    2.78371595775339   -2.53378054802431
N         2.95114417906805    4.01528562558978   -1.73747434944023
C         1.96621678460068    3.84575542758076   -0.65887958181975
C         0.49055374640153    4.06288993494662   -0.99914555380995
C         2.31644803173125    2.42396379597968   -0.18794490713494
C         3.62346545366514    2.45110281778881    0.58753592115779
C         4.76178867375147    2.29256657172055    1.20327646838240
C         1.86050017612065    2.72378710698124   -3.62397026536189
C         0.73901422583727    2.91891481366408   -4.25976841181700
C         3.25760704789300   -0.21469470467476    0.00693366066811
C         4.33410459484853   -0.92689593432675    0.77644657153061
O         2.10040767460708   -0.20425050978477    0.45879872562539
H         3.26586409572980   -1.44559974866079   -4.44170717230801
H         4.23818672578850   -0.01177087004082   -4.04243988739784
H         2.53350277223941    0.21085747409309   -4.20177936031962
H         4.00076435043474   -1.52778507005842   -2.08737337318285
H         2.28350785277662   -1.16957754858560   -2.02667726803749
H         4.94000971441782    1.63220962058798   -0.92666516366660
H         1.46651873729840    1.33893390845987   -1.81960140317109
H         3.94285116928157    2.75926602707014   -2.90229917969671
H         2.76011207672650    4.79619851539208   -2.36248760771710
H         2.21727443861496    4.56887839840708    0.12627618826399
H         0.14258169141251    3.37147880001833   -1.77357621719490
H         0.25912565271393    5.08277740824603   -1.32660851722251
H        -0.10249104206115    3.94003882124733   -0.08549696873824
H         1.58270343508678    2.00228429916438    0.50715162461422
H         5.64496365276421    2.39704369275736    1.79092066696442
H        -0.14132614470830    2.90661298640132   -4.86027760472957
H         5.28628287668347   -0.40110219367844    0.73203417646689
H         4.48327818257972   -1.89139964488856    0.28059217565481
H         3.95413832117829   -0.98306392245834    1.80034166347045
