36
 energy: -50.521899388019 gnorm: 0.307923289348 xtb: 6.4.1 (79825abcba525fcdf90b791dcacef51065a7a4e7)
C         2.81508088860829   -0.31062359446713   -3.69376973082263
C         3.31794653609540   -0.72098909527687   -2.31748194323183
C         3.51048374109836    0.45764690101642   -1.28798318556690
O         4.83300011545048    0.98268114189958   -1.49386686611437
C         2.38602083467495    1.55757597020343   -1.44652519867756
C         2.80384120385296    2.54980632538653   -2.61553739780479
N         2.99859215687407    3.79239948108832   -1.86055369156223
C         2.08279380959320    3.83929649431993   -0.71107416583980
C         0.60868759304933    4.08183019515304   -1.04076795600873
C         2.22446716026528    2.40496171230272   -0.17391011335739
C         3.40979462454474    2.30622211732242    0.77247821202888
C         4.48513284382034    2.47851361519249    1.48942539143241
C         1.78712942009030    2.77080523956667   -3.72362672357433
C         0.97936950242063    2.98118694126472   -4.72527946282015
C         3.39522642016747   -0.21849641254865    0.11680752114028
C         4.66201216304192   -0.84476859072083    0.62794812707214
O         2.27415114217732   -0.25949878208805    0.65057762775847
H         2.58527864917930   -1.24134060724411   -4.23980795834903
H         3.52598928767958    0.32902273346801   -4.22638634029822
H         1.87728381161694    0.23488559442296   -3.62712412898657
H         4.29936713217691   -1.21762538469066   -2.36322226217679
H         2.60359908273128   -1.42351644237894   -1.87024573101111
H         4.83483771533790    1.70914250675486   -0.84765693967935
H         1.45937051579866    1.02321914260139   -1.71315608139943
H         3.70389263555071    2.20087594638649   -3.12039784631395
H         2.89076026283704    4.64549474137365   -2.40604478126638
H         2.45124179336572    4.58138392555562    0.00722847118049
H         0.25125634353643    3.43026677180921   -1.84487290424234
H         0.36014426128255    5.11713933056783   -1.30023398391010
H         0.09114446856047    3.84039590606706   -0.10513616121224
H         1.39087890033648    2.07355471677345    0.45430476329054
H         5.32630595875092    2.24724430496306    2.10194601545410
H         0.29904856728187    3.10696500884521   -5.53589963383667
H         4.86249432350327   -0.60923122224703    1.67169333081279
H         5.47328366963564   -0.44845502837746    0.00894420870733
H         4.56417967673564   -1.93352576440001    0.59750162342698
