36
 energy: -50.518673199666 gnorm: 0.297491422930 xtb: 6.4.1 (79825abcba525fcdf90b791dcacef51065a7a4e7)
C         3.43179048259682   -0.28934505719635   -3.79056765656700
C         3.13752993863460   -0.62035799173385   -2.33479194025066
C         3.48702244066750    0.46672559555960   -1.24749008222088
O         4.81290579608401    0.97904553412185   -1.46349977957784
C         2.40817235268067    1.61471868778053   -1.38011998747354
C         2.74764319503067    2.63733769252878   -2.54832134480369
N         2.75437166158793    3.95208575925183   -1.89766140856808
C         1.92888465586973    3.88714180232422   -0.68253071373742
C         0.41193186180954    4.07275115651060   -0.75262432410735
C         2.24630816642049    2.48885912318472   -0.12577161741447
C         3.53644718669343    2.56830868685158    0.67399750783086
C         4.70349128055561    2.33733150563671    1.20757742673134
C         1.75725007304791    2.49533714217142   -3.69259522258676
C         1.25643799179538    2.94495382696428   -4.80932121252988
C         3.27442926204886   -0.26122700744031    0.11954323302805
C         4.47869862224039   -1.04557297425436    0.55859263509145
O         2.12402073911121   -0.38289501388538    0.57248761618289
H         3.38447717403873   -1.21088424872713   -4.39532210162846
H         4.45046672162364    0.07181722878907   -3.96400107277558
H         2.75368613503611    0.41734251265583   -4.26200422280155
H         3.72659762083571   -1.51885906570637   -2.09474767628067
H         2.07758259276748   -0.84586389789935   -2.16299003478742
H         4.95561365513243    1.69717274758833   -0.82376192302232
H         1.42722993429758    1.11934970938985   -1.46770774323175
H         3.77915184315033    2.49439906303776   -2.86814557209901
H         2.47848158110901    4.65802809360705   -2.57772747679040
H         2.28205652191302    4.63454086402492    0.03793485229411
H        -0.12156479260870    3.34107427040832   -1.36817855644140
H         0.30077361409626    5.08615111393448   -1.15465142072442
H         0.02960967389891    4.03699662041851    0.27406920970412
H         1.55063667330348    2.07780959893036    0.61343970036310
H         5.55706038781750    2.31951635638094    1.84581062620620
H         0.45768078963251    3.09255419670992   -5.49922183059718
H         4.24552643205481   -2.09997412309826    0.42095562983370
H         4.67148525526650   -0.92495395551091    1.62942227091459
H         5.36480018063042   -0.72326849345393    0.00466645424724
