36
 energy: -50.492027196472 gnorm: 0.323909340056 xtb: 6.4.1 (79825abcba525fcdf90b791dcacef51065a7a4e7)
C         1.63830259405700   -1.43451759680679   -3.00014893668207
C         2.15650136669099   -0.86330216044608   -1.68842308291736
C         3.11776382765404    0.38525093922463   -1.63176018389725
O         3.94167626959501    0.38937996182394   -2.81000032987150
C         2.43916095441713    1.80726606209341   -1.50227098070546
C         3.41132775534522    3.03949538072414   -1.75164440994513
N         2.69967114243123    4.24191633959412   -1.30477215304314
C         1.54877939731388    3.77318788350070   -0.51868630618546
C         0.19795693259385    3.87159774034297   -1.23009611132399
C         1.79526346583418    2.29037692837001   -0.19241936281217
C         2.66788143504117    2.19769198542022    1.04868859422055
C         3.38718141595572    1.96534569611686    2.11107866108917
C         3.82488876567449    3.21841425076461   -3.20331954832139
C         4.04473566708468    3.18262096964818   -4.48801056090166
C         4.09301455233834    0.13334550876573   -0.43621820242931
C         5.54288055248821    0.45219282772496   -0.66956911394064
O         3.68484577091400   -0.45007376576396    0.58182978065341
H         0.79373599249295   -2.11057987254755   -2.78370489190812
H         2.40856475979765   -2.02968384002950   -3.50084042300206
H         1.16012839390973   -0.70651234938632   -3.65041277319479
H         2.77031821298425   -1.65955800946194   -1.23994602994948
H         1.26900047119266   -0.57297315866077   -1.11230815322651
H         3.21615447242275    0.42147417069300   -3.45647140074718
H         1.59387388207155    1.82338876776239   -2.20975942342614
H         4.31411853386725    3.07248765446937   -1.14286743989383
H         2.34566635057663    4.81452363040552   -2.06881487169313
H         1.49376045060692    4.34395028408100    0.41598452344763
H        -0.01753372895505    3.02813996907090   -1.89418912200020
H        -0.00705918652992    4.79851425841402   -1.77759549499453
H        -0.47897046498863    3.89097293564500   -0.36815518536704
H         0.89438482432963    1.77551421702769    0.15784907553686
H         3.92270128287981    1.65859860580958    2.98019540440610
H         4.28900833317104    3.15378224117293   -5.52495847418732
H         5.64599458288595    1.39163009123735   -1.20984693570176
H         5.87684382017315   -0.32594808361818   -1.36336808194753
H         6.13227760504211    0.39966340639813    0.25007328519902
