36
 energy: -50.515994800452 gnorm: 0.308235905904 xtb: 6.4.1 (79825abcba525fcdf90b791dcacef51065a7a4e7)
C         3.07118489446944   -0.30923001710801   -3.73991738909572
C         3.11216313788617   -0.72952956463397   -2.27803133562683
C         3.45046275672475    0.39340232481512   -1.22413457465151
O         4.76919096489380    0.93313176919539   -1.41582861661341
C         2.38443925457050    1.55224852885247   -1.36578791035899
C         2.83658063512833    2.56378704115626   -2.50510458480662
N         2.92127346831264    3.83192808950323   -1.77256688580566
C         1.94054883805548    3.89736493639143   -0.67890956843587
C         0.49252234219679    4.26956712583639   -1.00324658426148
C         2.17934505841201    2.47239522474872   -0.15130129030525
C         3.47902602537243    2.54045123111235    0.63393711046033
C         4.72573306674818    2.71964495865406    0.97107368944452
C         1.84432203338415    2.53451656651212   -3.65617862900460
C         1.09096036356777    2.88602079080793   -4.66063657246309
C         3.33486441019981   -0.39421801777544    0.12129550857523
C         4.59023922568202   -1.08824462473268    0.56916690047238
O         2.30628183410469   -0.44829031814361    0.81591449519704
H         2.66234107387310   -1.08011066875371   -4.41504013146026
H         4.07165922199409   -0.04887107697579   -4.09975480877739
H         2.40270102527987    0.54238886036807   -3.83666380875301
H         3.85276796760202   -1.53857861882867   -2.18384922668188
H         2.17370933612844   -1.20459628312360   -1.96582426791606
H         4.64375734115594    1.81062835932104   -1.01632530080731
H         1.42158934204509    1.10431140983412   -1.66173120763947
H         3.79353644243650    2.26317624441562   -2.93007257452506
H         3.05480628255060    4.63599113007778   -2.38298590368924
H         2.36501103962455    4.63558901105035    0.01193296314149
H        -0.00328379506860    3.51781232861654   -1.62607702163182
H         0.40436773523570    5.26665238430061   -1.44935325312923
H        -0.09623557669470    4.32496640983287   -0.08029302045716
H         1.45352845742982    2.09105136570473    0.57472971784670
H         5.62446076983214    2.94875299766134    1.49646615441759
H         0.61033393980169    3.05655519485013   -5.59641327064956
H         4.27896602818489   -2.07760022972798    0.89986234668945
H         4.93677550631736   -0.62558472582379    1.49881746039604
H         5.40363025525662   -1.06728562557825   -0.16148083298986
