36
 energy: -50.516817568328 gnorm: 0.297146053381 xtb: 6.4.1 (79825abcba525fcdf90b791dcacef51065a7a4e7)
C         3.08821596812952   -0.51383846217180   -3.77255539109519
C         2.94956129590144   -0.80801212258796   -2.28605664700376
C         3.42637288771758    0.36383177136680   -1.34501803655464
O         4.82150265296369    0.62806545744075   -1.57061077227483
C         2.50643437242199    1.64587311948649   -1.44238050264684
C         2.88807978453335    2.71507846253796   -2.55450962950724
N         2.90955326459944    3.98841200634199   -1.82641164451296
C         2.02362071098646    3.86199177293267   -0.65965092729526
C         0.51057992017896    3.85963096832035   -0.88595103339994
C         2.41840655636160    2.46705885665052   -0.14560894373870
C         3.81098963666836    2.60844846976005    0.44694736699367
C         4.70369395008300    2.69205825487058    1.39359322124833
C         1.95866208018920    2.75372997334760   -3.75663032427166
C         0.98655187523385    3.13607762061636   -4.53692311754712
C         3.23542447687430   -0.26590933258039    0.07302843753298
C         4.46686864147581   -0.67460117903161    0.83114710737862
O         2.08361534503254   -0.48473468405943    0.48394532206908
H         3.10325897900234   -1.49634801720043   -4.27420233345054
H         3.96824720864841    0.11144282724999   -3.95362707468082
H         2.22177095119386    0.03517371145080   -4.13219956960239
H         3.55217525372655   -1.69760150389731   -2.04644588841542
H         1.89951883412452   -0.98635712051213   -2.02250195627923
H         5.04451819969923    1.56924466854682   -1.47170420821879
H         1.47443309283252    1.26458252043811   -1.51238699462331
H         3.90070145748907    2.50061416469308   -2.89411452929168
H         2.69444021186826    4.71923019815029   -2.50212676240610
H         2.19839210407623    4.66653693495732    0.06462002101227
H         0.26049887421928    3.25059864917672   -1.76083152222769
H         0.16071678888773    4.88549188677735   -1.04771191699509
H        -0.06085066946987    3.44333354575295   -0.04826863894184
H         1.71437480231530    2.03116684782009    0.57111372112212
H         5.72360392306158    2.63215869813906    1.69762436874086
H         0.30810394541880    3.12883354372759   -5.35876112800976
H         4.20159722413052   -1.51267219631230    1.47328653537049
H         4.87574578353155    0.19034043467530    1.36320653346042
H         5.21121547806446   -0.96364158129930    0.08395650128898
