36
 energy: -50.517453059515 gnorm: 0.308658484686 xtb: 6.4.1 (79825abcba525fcdf90b791dcacef51065a7a4e7)
C         3.18469259735673   -0.70465758978199   -3.64253375584882
C         2.85496154048519   -0.81709024544837   -2.16129167400916
C         3.37318755103574    0.36861635540112   -1.26036840691849
O         4.70783901608864    0.70219015811174   -1.67813935798928
C         2.40963508579630    1.60624794227256   -1.45843671547837
C         2.82663483704674    2.58166744274740   -2.64180162216238
N         3.08103293586197    3.86374140428060   -1.97581808966982
C         2.22339364630392    3.95955302913967   -0.78524507263519
C         0.79861696961058    4.39869844747315   -1.12827924748674
C         2.39995745102882    2.53480236627366   -0.23311863864731
C         3.71078150489250    2.42023715055796    0.52781282818564
C         4.85457868392991    2.67710246692138    1.09860012759874
C         1.72680488411563    2.62938518673662   -3.68989630773826
C         0.60113078013839    2.51393071114457   -4.33764077376941
C         3.20115844376557   -0.17423803292560    0.19551827548549
C         4.41670795491383   -0.72703454420493    0.88478097171206
O         2.08658182221632   -0.13192522838639    0.74262893056036
H         2.84963798710475   -1.57567432135304   -4.23098021249529
H         4.25788430755573   -0.52024758532067   -3.75420798543453
H         2.63148991408675    0.16284209781402   -3.99309951827718
H         3.42536716283727   -1.70889640063356   -1.85922317884058
H         1.79008935603206   -0.94798046210097   -1.93156974702254
H         4.98710898781159    1.58651033065492   -1.38603858052058
H         1.43930993936124    1.17064767952573   -1.74831874607372
H         3.70177098895769    2.31089758905920   -3.23133489197497
H         3.02927340617604    4.73468052562076   -2.50093309354808
H         2.71071836097916    4.58013874588212   -0.02380278965207
H         0.27878900463212    3.74858576001762   -1.83962244107580
H         0.76851775052596    5.39422360732849   -1.58542813458746
H         0.27325060598847    4.39265401866636   -0.16624915262618
H         1.64394296756933    2.17810192742422    0.47438458875856
H         5.73229864933883    2.71727980386056    1.70211704032608
H        -0.18860808787900    2.54065096007389   -5.05273540364537
H         4.99899832814340   -1.35798943653798    0.21552105297049
H         4.08311176032810   -1.26115689478419    1.78022423515928
H         5.05652771245085    0.07987678060795    1.25276895600523
