36
 energy: -50.515356721194 gnorm: 0.311141631203 xtb: 6.4.1 (79825abcba525fcdf90b791dcacef51065a7a4e7)
C         3.04750699278375   -0.50106210741432   -3.66129000435639
C         3.06465787656891   -0.85746591255011   -2.18205913749052
C         3.40795036481681    0.39143106541109   -1.28287746171379
O         4.77722656644301    0.74713782090530   -1.53910779052043
C         2.41759105458467    1.61492090850550   -1.43004195707663
C         2.78722112709125    2.56565602392856   -2.64871370081176
N         2.91911927810034    3.87350884736591   -1.99749179890231
C         2.16262909576493    3.89680617444387   -0.73679002307239
C         0.66251407017808    4.11815144304945   -0.93969620389721
C         2.43971000439717    2.49433043457602   -0.16914505356886
C         3.82081103373089    2.51603552270871    0.46527627858562
C         4.87956216003467    2.64175949489501    1.21580239521479
C         1.70457525480650    2.68483177989221   -3.70894027962979
C         0.72056564939120    2.78814653184877   -4.55811395991187
C         3.20827226564458   -0.26103295056298    0.12364674047726
C         4.45783024565580   -0.76925182866637    0.78587488125161
O         2.05532723994418   -0.28041675836165    0.58597080391143
H         2.94325841039489   -1.39231256276057   -4.30316680784471
H         3.97625991886176   -0.00706320475396   -3.96394776154805
H         2.27693955363969    0.21948339524317   -3.92306332082257
H         3.83574916779847   -1.62860703194888   -2.03144120876813
H         2.13762636728359   -1.38951844221587   -1.93428935230955
H         5.17490064643757    1.33450139608684   -0.87412951538237
H         1.37683166731089    1.25442521180499   -1.47665541114862
H         3.72424084567317    2.27271886080785   -3.12084813726026
H         2.68922986975778    4.71661428318977   -2.52025738169099
H         2.58765110508344    4.70630600116774   -0.13142015221568
H         0.21815257345687    3.35067911698193   -1.58188453428027
H         0.56993356044430    5.08379648854658   -1.44951961748440
H         0.15056564860904    4.24208149791243    0.02160417073133
H         1.72954681593984    2.19826786235027    0.61019384246298
H         5.60618436987770    2.94670344871355    1.93362449850789
H         0.15036757217606    3.10513206552431   -5.40082155704449
H         4.07303909764665   -1.36666293999596    1.61056314996210
H         5.05363486915603    0.10280495838712    1.07384286717670
H         5.01180965780398   -1.31250611404632    0.01524399397724
