36
 energy: -50.515817525118 gnorm: 0.306219442813 xtb: 6.4.1 (79825abcba525fcdf90b791dcacef51065a7a4e7)
C         2.91286880762885   -0.49809161233938   -3.65568694603834
C         2.85763611132513   -0.84162204028701   -2.17434364636211
C         3.31483792071802    0.32822784419815   -1.22117061839765
O         4.69362824584085    0.51027759996168   -1.58571652482509
C         2.44112468523850    1.63704395221462   -1.37290038013096
C         2.87170629295871    2.58507669577394   -2.57353266249978
N         2.84017980153286    3.92704509198236   -1.98184609014012
C         2.04855421421857    3.91728846376738   -0.74272428149446
C         0.53556110194648    4.07202544465015   -0.90830816109471
C         2.52598117493798    2.57667675095910   -0.15898072402843
C         3.95152852220518    2.58355377811609    0.36843659024302
C         5.14267977723410    2.64558885391147    0.89508659177216
C         1.91767787724302    2.56505323814055   -3.75667855444291
C         1.08359581139060    2.76645494126445   -4.73840624376199
C         3.12363211298481   -0.14355777021261    0.25691923853107
C         4.40319025023478   -0.58911180430477    0.90687327627299
O         1.99920036808283   -0.23171689128093    0.77776731011601
H         2.70461852304878   -1.44494076845131   -4.18228875760649
H         3.88616873926713   -0.08605782431414   -3.94052730584657
H         2.11358518511919    0.20603838113668   -3.87209376771245
H         3.69084676306929   -1.55583512321320   -2.08724684447252
H         1.93836933955631   -1.33270328574883   -1.83134949291760
H         4.95208574862148    1.35395851921234   -1.17737967646860
H         1.40918319412523    1.27791489661623   -1.51930101848656
H         3.88607940569373    2.34369732784577   -2.88898829747283
H         2.59989735701756    4.68406323628495   -2.61914323073745
H         2.42963704776011    4.69192720305962   -0.06661996207269
H         0.15173992896268    3.47530738342042   -1.74226596544159
H         0.19987593916081    5.09330113781397   -1.12108231267010
H         0.16389046012540    3.81177859970768    0.08952988563468
H         1.86651774163724    2.32863609594072    0.67943308817669
H         6.16791833497689    2.50204269179614    1.14909369739810
H         0.62129183167563    2.94851637370177   -5.68121610830074
H         5.22853827920802   -0.47040841320473    0.20702676831282
H         4.41183446747000   -1.65344233201236    1.16283723528148
H         4.65067429071967   -0.01660856223583    1.80513941401930
