36
 energy: -50.516479892880 gnorm: 0.305347110744 xtb: 6.4.1 (79825abcba525fcdf90b791dcacef51065a7a4e7)
C         3.21930739189366   -0.45242730754666   -3.71001132822606
C         3.18524258473092   -0.83185848123033   -2.23681298871958
C         3.40755658598151    0.37650009809444   -1.24859889491932
O         4.77837337976498    0.75114640234818   -1.46677326091792
C         2.41230688507037    1.59888435833913   -1.36964062385594
C         2.67598446923897    2.53601100399883   -2.62580633139036
N         2.86250326674661    3.87538769231185   -2.05725824302501
C         2.23062540172149    3.97901598204853   -0.73355862853335
C         0.75285909174236    4.34233223847632   -0.89077747176253
C         2.41361847004299    2.55977220351728   -0.16947222699842
C         3.75331950923744    2.56633752981883    0.54855257100656
C         4.95383004212201    2.71737725632134    1.03436258893983
C         1.56997777143088    2.39912906599563   -3.65944936499603
C         0.85937079055374    2.72083327302824   -4.70424071250354
C         3.07906236516009   -0.23105846285888    0.15384721562050
C         4.25986293742561   -0.87425857409302    0.82483999157834
O         1.97684321571412   -0.26930109416600    0.72573176706165
H         3.13050130407975   -1.31529489107019   -4.39175466865316
H         4.17486390441824    0.03535510518131   -3.92726394352916
H         2.40618871374359    0.19914064051528   -4.01949879378303
H         3.99892264677234   -1.51814623948446   -1.95599269488658
H         2.23670402367007   -1.33230279971706   -2.00510786938509
H         5.04529304665691    1.45422626818850   -0.85051897458832
H         1.43556063562508    1.10280281289384   -1.49284752468084
H         3.58881218890677    2.24878156311057   -3.14635785434793
H         2.50588751655473    4.55804799158556   -2.72341130316638
H         2.63605675277573    4.69280425981333   -0.00655238991486
H         0.24758746444321    3.60191804888555   -1.51955738006604
H         0.71609041208596    5.30812284885361   -1.40736045433656
H         0.29517233023644    4.49490459355788    0.09349523415369
H         1.70096127202818    2.28951232491854    0.61693303310645
H         5.93054658015910    2.97932278612039    1.37148061604577
H         0.12678531008156    2.60766066494576   -5.46992489875111
H         4.15417324610094   -1.14292075292584    1.87447103083656
H         5.17430161032298   -0.28531117619383    0.70100695082657
H         4.31454245219723   -1.85907807343082    0.35257832990722
