36
 energy: -50.520947303236 gnorm: 0.311468085989 xtb: 6.4.1 (79825abcba525fcdf90b791dcacef51065a7a4e7)
C         3.19217198365689   -0.44052550535333   -3.77133670345145
C         2.91913595237444   -0.79548616067860   -2.31706849277626
C         3.28000111892223    0.30193315034356   -1.24395701229769
O         4.68310912960598    0.51650639532244   -1.47274693159514
C         2.39481980920651    1.60840573804115   -1.33871867737234
C         2.86672535349732    2.60328010723368   -2.48467445282856
N         2.92603558608699    3.91621136751647   -1.83301510747927
C         2.07762297553839    3.86572612063740   -0.63308326829457
C         0.60669416408053    4.15631315711381   -0.93711836603320
C         2.47999374683907    2.48780047420563   -0.08049704914180
C         3.91806233918496    2.66360244478320    0.37934422223455
C         5.13908091600877    2.99893541865087    0.69033514570846
C         1.90526175670993    2.60244342515838   -3.66195624438916
C         0.99456871779103    2.61694823473686   -4.59494745018742
C         3.05503668670861   -0.35177791344613    0.15816416791839
C         4.28413751149062   -0.66252087678673    0.96499602791910
O         1.89787674015577   -0.52358582541262    0.57633207280223
H         2.97766532443657   -1.32870769051221   -4.38965722750482
H         4.27640105522623   -0.32102298315468   -3.86290687855421
H         2.75664812076222    0.44704691091881   -4.22302180828075
H         3.40775348854606   -1.73799254478484   -2.02575975682410
H         1.84169359142228   -0.98875141412757   -2.24207727954004
H         4.98183596338354    1.28911450862682   -0.96365388108247
H         1.33344619074545    1.33920910224094   -1.46650475749150
H         3.84794293867918    2.32983247153966   -2.87089655606305
H         2.64658464148401    4.68303855289733   -2.44198391901546
H         2.43443169862773    4.64928017973055    0.04598737279942
H         0.10194195578706    3.43408796009127   -1.58711277685968
H         0.60945078989643    5.13366919953400   -1.43282895172347
H        -0.04704180180478    4.19223242643670   -0.05797824814279
H         1.81247940284161    2.23343321282711    0.74960885529746
H         6.16982662654233    3.15256767750785    0.91438789673274
H         0.32994707435540    2.73829473965741   -5.41915305039061
H         4.13340497454363   -1.16050018547836    1.92122367107917
H         4.71339528414414    0.30161649351247    1.25580291396888
H         4.94349168666435   -1.20035752837091    0.27806504244785
