36
 energy: -50.521199263458 gnorm: 0.293955762760 xtb: 6.4.1 (79825abcba525fcdf90b791dcacef51065a7a4e7)
C         3.51291599474894   -0.16387865165373   -3.92589272237656
C         3.17479273452875   -0.68016273173672   -2.53500624800113
C         3.44880403238473    0.36289080021040   -1.38475488246042
O         4.82710018913959    0.74398851555357   -1.53362672843897
C         2.44018046244571    1.57872483465673   -1.44658087943427
C         2.84355488553261    2.63798147919422   -2.56055976858685
N         2.72331351426723    3.95431719094474   -1.92434562984969
C         2.10613971502303    3.87294604029835   -0.59218033533683
C         0.59157205942458    4.08868608043354   -0.59930712744113
C         2.39023421489410    2.42346064390589   -0.16297729688964
C         3.71987221479949    2.49709256312888    0.56985470622307
C         4.49033760704734    2.71017597101257    1.59991707367497
C         1.86173817004810    2.48093012594241   -3.71024505100480
C         0.90447151080934    2.92261558982304   -4.47744734450046
C         3.13577953649656   -0.36128720225872   -0.03513536753339
C         4.31302690666416   -1.00630952854352    0.64033668643439
O         1.98351940164544   -0.32420807832770    0.42781518247005
H         3.37771707574345   -0.94398668508522   -4.69423748843337
H         4.56907310274923    0.12377947863670   -3.92399708463167
H         2.83759437355916    0.63880789405796   -4.21070895251467
H         3.80253563161245   -1.56864637839026   -2.36629991547455
H         2.15613666717764   -1.08739787607464   -2.55388827014746
H         5.04595251467765    1.33634496796194   -0.79433365645586
H         1.42133649597861    1.22996108455442   -1.68244290437778
H         3.86740425853246    2.47257706145955   -2.89388083264928
H         2.20863059753422    4.64339966889682   -2.46953056428188
H         2.53433742200625    4.67352659339830    0.02273743230616
H         0.06189151434935    3.52858885840021   -1.37687152013309
H         0.34158270797136    5.13480941711164   -0.80928975782724
H         0.24008219406379    3.81262614704110    0.40158949279383
H         1.61845809751573    2.06545841966945    0.52662400698884
H         5.34290635686200    2.83770074698556    2.22689649342735
H         0.31331477654554    2.75781490370601   -5.34873160511062
H         3.99287333966189   -1.79257327441880    1.32178075004158
H         4.80685915123257   -0.25974983362278    1.27055099996803
H         5.06414077031659   -1.38334330448099   -0.05935171494963
