36
 energy: -50.521884120974 gnorm: 0.298660632533 xtb: 6.4.1 (79825abcba525fcdf90b791dcacef51065a7a4e7)
C         3.20061604671525   -0.49333243731970   -3.68232332813939
C         3.04055669267080   -0.82202196729718   -2.20523634185443
C         3.39762922788445    0.38171767213944   -1.25149050145823
O         4.70180877710239    0.89477175697981   -1.57241071121767
C         2.35255433065715    1.55772925035357   -1.40709111055213
C         2.69536703735586    2.51462720059135   -2.62877446735158
N         2.89722482064417    3.82343432121704   -1.99770915370151
C         2.15191029513520    3.89577589652564   -0.73222028948103
C         0.66962692713970    4.23189905911873   -0.90648143825159
C         2.37669484574473    2.47918817515813   -0.17662697079989
C         3.68340153975292    2.55507937812381    0.59613408769329
C         4.90208273476212    2.63522379963397    1.05268954380989
C         1.67019225809544    2.42429639885345   -3.74737285583642
C         0.96666904000380    2.84401067163712   -4.76173955682914
C         3.22777046926692   -0.18918934459005    0.19388284268650
C         4.46296373125957   -0.79484355868817    0.79862100246920
O         2.13794386086840   -0.26246355924337    0.78575304258841
H         2.98009371605819   -1.35835800368916   -4.33063007723418
H         4.19366879741358   -0.09896074374084   -3.92009596938003
H         2.45915152615462    0.27069101101183   -3.90137538517106
H         3.73446856578101   -1.64173629289931   -1.96340810696434
H         2.01844030944453   -1.17374146927620   -2.01701130499029
H         4.96855419069934    1.44396073268313   -0.81572378463165
H         1.35065015031000    1.12305320554953   -1.55727366178618
H         3.65808735158039    2.29496297634100   -3.08882478243140
H         2.65546774741945    4.61300172560005   -2.59360897610063
H         2.59471533062818    4.66644507099627   -0.09003723963662
H         0.22406596399520    3.78127413149776   -1.79939204942262
H         0.53886160247119    5.31320607378645   -1.02746482683012
H         0.12505645397948    3.93388917907233   -0.00305387529890
H         1.53994598103225    2.13694400432608    0.44149450833619
H         5.85104084480465    2.72605365394747    1.52962521187019
H         0.26924048630278    3.07262482716736   -5.53445603079320
H         4.53084302097115   -0.46528034559527    1.83392554167994
H         5.34454066436314   -0.51723478877902    0.21198037650314
H         4.24694345155175   -1.86136394124330    0.90706399069455
