36
 energy: -50.518311139138 gnorm: 0.300211975356 xtb: 6.4.1 (79825abcba525fcdf90b791dcacef51065a7a4e7)
C         3.16738715612492   -0.52265143963593   -3.54173543590646
C         2.89458351385814   -0.87076774659709   -2.08577012188734
C         3.38663009400879    0.29738292895061   -1.14798803600595
O         4.77662730057568    0.49488717251858   -1.45782416625897
C         2.55663171042676    1.61589493719310   -1.41636296589947
C         2.81165239328622    2.48581004750496   -2.72169689003195
N         2.94632254765502    3.89376120078999   -2.33246223637238
C         2.29090808877934    4.04348145935189   -1.02471422434304
C         0.77702519266065    4.24526519617436   -1.11388614731621
C         2.61300747891822    2.70703331738834   -0.33472061928668
C         3.94738332836985    2.72516540241985    0.39295644617831
C         5.17144552783606    3.08845048254965    0.65705038405333
C         1.58704826652563    2.38166932051080   -3.61607089775964
C         0.40880034016991    2.61978265331707   -4.12112407910041
C         3.13259027689937   -0.20644453802097    0.30992574427572
C         4.19062451181312   -1.01821651066445    1.00261433708785
O         2.03216004653767   -0.06391666062008    0.86862119202592
H         2.89232215772225   -1.40493974471722   -4.14431951133497
H         4.24578663738423   -0.36621700745474   -3.64566550810448
H         2.56927518198658    0.32372463527980   -3.86944701151733
H         3.48825474369693   -1.73873162585504   -1.76001047946774
H         1.84107643550289   -1.07379634325979   -1.85607595572776
H         5.04887822760986    1.30341330142899   -0.99145340557889
H         1.51047522615966    1.27856173778308   -1.50046408688023
H         3.73219475180559    2.21734490213862   -3.23866624489545
H         2.64726538930434    4.57854712507826   -3.02426627569711
H         2.74283914393738    4.92488320100962   -0.55429351080538
H         0.33073781063135    3.26353634164279   -1.30339285520530
H         0.44891940495294    4.94008362629852   -1.89525376558191
H         0.41780129628415    4.71213349710527   -0.18947258369540
H         1.87502923365096    2.56639891304594    0.46212566319478
H         6.11824184524376    3.25022926469784    1.11926633636089
H        -0.38127293793067    2.54160088686990   -4.83206263621317
H         3.76820341497717   -1.55768391108401    1.84855188653392
H         4.88983398913005   -0.26311991046655    1.37587963093943
H         4.63648879037124   -1.79356259445044    0.37338158333330
