36
 energy: -50.508755451689 gnorm: 0.301327865115 xtb: 6.4.1 (79825abcba525fcdf90b791dcacef51065a7a4e7)
C         2.93378605172891   -0.28089046696762   -3.81772423082058
C         3.00841358342950   -0.70617421680335   -2.35861278062194
C         3.44664585380793    0.36545783650895   -1.28824916869384
O         4.82820610905330    0.65817240182957   -1.55789342327863
C         2.53637919308222    1.65243284656272   -1.40869098055196
C         2.97916365559493    2.76379402492297   -2.45487581974866
N         2.72865660771100    4.06815070713828   -1.83208695517990
C         1.88044566068227    3.84697658854032   -0.65148993547577
C         0.38239134949918    3.85018921705713   -0.96186501369828
C         2.27310823894948    2.45617254286039   -0.12478980667906
C         3.43785835253319    2.57683480084992    0.84433316003028
C         4.47547874684850    2.40421702918918    1.61478556299764
C         2.26561517094438    2.71038905870172   -3.79592088784810
C         1.38086700977938    3.22175897016722   -4.60571490706614
C         3.36809892163127   -0.21018265964420    0.16308101869169
C         4.63652393923935   -0.85339704161281    0.64846838192357
O         2.28797470621700   -0.44373821969405    0.73069440836828
H         2.90246585114285   -1.21750353651734   -4.39994066234201
H         3.80825524497136    0.29610410429816   -4.13489850631983
H         2.02260719447960    0.28261750705872   -4.00129198006896
H         3.74361081201211   -1.52329722334081   -2.29761123763768
H         2.03571374156480   -1.11093531702045   -2.05221329123593
H         4.91153224346769    0.92831713571272   -2.48817044120839
H         1.54783289538003    1.21918760912479   -1.63315667334331
H         4.03106161051318    2.69632323721010   -2.72998936547479
H         2.30741457368222    4.70794153048897   -2.50304345626230
H         2.08835668624843    4.63144896218888    0.08592613028303
H         0.21317073454772    3.17063429340817   -1.80355750625374
H         0.05338346144705    4.82322030378180   -1.34386727649544
H        -0.22579278624178    3.66749549635419   -0.06839799424372
H         1.42209403265499    2.06416178056254    0.44218134564149
H         5.32513991611862    2.36900399523472    2.25749478153341
H         1.02263221664499    3.41780405534136   -5.59009083249465
H         5.49771198029071   -0.21006631074097    0.82038614710085
H         4.98889771532283   -1.41617571770740   -0.22187903867851
H         4.45157113764359   -1.45613923510871    1.54199212178788
