36
 energy: -50.509096017749 gnorm: 0.294939036309 xtb: 6.4.1 (79825abcba525fcdf90b791dcacef51065a7a4e7)
C         2.91864946146878   -0.26075541442084   -3.77265937648497
C         2.93857102146118   -0.68067859566102   -2.31022666628543
C         3.46837572027706    0.40564346651257   -1.29763966289386
O         4.86796744194235    0.67675017444339   -1.48403376506193
C         2.51686551545494    1.66105413920070   -1.43168713119880
C         3.01500292172956    2.83598886738322   -2.37882598856666
N         2.55746246147803    4.09692728259617   -1.78497655133926
C         1.77090475874479    3.77714586183280   -0.58445335373326
C         0.24724890073164    3.79274496367582   -0.72134464082902
C         2.22032659064051    2.38528930802594   -0.10833553064515
C         3.41393421012084    2.45078721591884    0.83050016781211
C         4.62666292959748    2.67103466973642    1.25574132004615
C         2.51420472448088    2.71938171255578   -3.80921382480695
C         1.77537017586716    3.17326219393658   -4.78294935238046
C         3.33973636158104   -0.26034438347977    0.11083577618282
C         4.61595608862921   -0.95826042230579    0.48820044567290
O         2.23478356047654   -0.28759739968053    0.67805537944260
H         2.52502580047886   -1.12093619309497   -4.34041849313173
H         3.91992874117521   -0.06325800922120   -4.16845377926971
H         2.28492163038762    0.61924559322174   -3.84663594284051
H         3.60165228178512   -1.54517384541567   -2.15243764758227
H         1.95552457189951   -1.03094465596155   -1.97141912487045
H         4.90126821061722    1.07443277844590   -2.37064324057709
H         1.50726026836167    1.39208965161960   -1.78334808757405
H         4.10219386994401    2.82259963506528   -2.44639566377008
H         2.05069178281195    4.72964759183930   -2.40126241260842
H         2.09998863626192    4.56227633852642    0.10669083812262
H        -0.13364893657422    3.11022341584392   -1.48812879224770
H        -0.07152204101079    4.83114075305619   -0.86653653677577
H        -0.25755728003917    3.38653530551197    0.16280053221658
H         1.40305814198649    1.85530887315957    0.39221111475092
H         5.49162766932383    2.60487870895693    1.87517543019075
H         1.40905101932114    3.05688222224033   -5.77694522190314
H         5.48241668221672   -0.30162790188455    0.54436778447895
H         4.88633480015275   -1.65832694809507   -0.30879011947037
H         4.51051415763402   -1.52838151413802    1.41541903241165
