36
 energy: -50.519675657323 gnorm: 0.303464667190 xtb: 6.4.1 (79825abcba525fcdf90b791dcacef51065a7a4e7)
C         2.97966916061799   -0.67508028720897   -3.48278028289667
C         2.86705554411282   -0.94248616383399   -1.98904199961023
C         3.38271179026731    0.34098904655279   -1.23213308893940
O         4.75454946555374    0.58010642813276   -1.58988001359782
C         2.45123290860557    1.59831504592670   -1.45768744021972
C         2.71482792517902    2.49422059707797   -2.74359388786040
N         2.84379039500162    3.87380625407906   -2.26184894349312
C         2.30082968321384    3.96076508271874   -0.89809641704735
C         0.81594241723128    4.32837806227443   -0.87618207521858
C         2.54437658387622    2.57584896100189   -0.27469840050030
C         3.95676836336084    2.59341654038183    0.28676615162611
C         5.05331790750237    2.78865554194771    0.96463838238386
C         1.54364397965054    2.38155497739420   -3.70590360365974
C         0.58844777367141    2.57675935287463   -4.57166353900015
C         3.28824222593287   -0.03198261895455    0.28307600508707
C         4.40354356249153   -0.72546422716363    1.01342787682283
O         2.14075606425826    0.11112197844229    0.73716640196334
H         2.87432304905522   -1.62853430626769   -4.02778358971986
H         3.95945125742404   -0.24413179637977   -3.71197250340434
H         2.16019713030016   -0.01876280796990   -3.76420208346976
H         3.50254403120441   -1.78908409449353   -1.68679625144477
H         1.84093838801821   -1.15905621577824   -1.66649250019779
H         4.96274816316542    1.44744813333433   -1.20295828333745
H         1.40518709767135    1.27890942872836   -1.59581158210270
H         3.57691464720193    2.14706328444562   -3.31194004437997
H         2.49186424782917    4.55091943961646   -2.93610816030286
H         2.90338070509712    4.71324913666878   -0.37550061236663
H         0.23375733681301    3.63325792899934   -1.48997788421649
H         0.68064267383580    5.34635279996214   -1.25878216442536
H         0.40167262064966    4.19861442811752    0.13034173941101
H         1.88436014466696    2.36825260477031    0.57420440460698
H         6.11875028367480    2.77814973130489    0.99598665717743
H        -0.09744576718490    2.74370403460519   -5.37006274783301
H         4.94842976085487   -0.03528029786345    1.65516004079246
H         5.12942250790067   -1.13287361322921    0.30243625055810
H         3.99363219346183   -1.48213157975402    1.68820010054207
