36
 energy: -50.521575646399 gnorm: 0.303142784882 xtb: 6.4.1 (79825abcba525fcdf90b791dcacef51065a7a4e7)
C         3.20090736158008   -0.45549189669257   -3.57830456205073
C         2.96297113952029   -0.75560442663727   -2.10563331485968
C         3.38097743955059    0.44196458582253   -1.16903293763673
O         4.73434447919991    0.70771617380170   -1.57507766493202
C         2.43940913187168    1.70155259491792   -1.33115477484132
C         2.81189859148669    2.56573651010707   -2.61182734866923
N         3.01416806832749    3.88520388328337   -2.00350260370727
C         2.11849637579174    4.00285714597945   -0.84327889484194
C         0.65868570749138    4.30080865267192   -1.19067986881731
C         2.42798408819646    2.67131261112315   -0.13819780760943
C         3.80343514345835    2.77729324758189    0.50000599563535
C         5.02651793845178    2.49338608471129    0.85145318669737
C         1.70843903570430    2.41853879124943   -3.64677429142932
C         0.66480434090282    2.48874553675580   -4.42519733113903
C         3.18043136803299   -0.19893107667066    0.24267699608526
C         4.28207581450928   -1.08713443542698    0.74834680663045
O         2.13136775483095   -0.04679522979404    0.89053631449192
H         3.25805471151192   -1.36895308391114   -4.19435960075611
H         4.21640082663806   -0.05181084589943   -3.64181254330316
H         2.55962081376674    0.31124322279336   -4.00533393810721
H         3.57416772843562   -1.63335147972098   -1.84500905112648
H         1.91658048166641   -1.01607830120828   -1.90295837034079
H         4.97070344740344    1.56374102566000   -1.17923344792736
H         1.41909457986511    1.31709956058534   -1.49383279764137
H         3.74759174795672    2.23329088104945   -3.05980869340755
H         2.82487954839799    4.63213352547975   -2.66925461264175
H         2.45180601257623    4.86211834018816   -0.24915664872835
H         0.22994011207097    3.57560807835327   -1.89006395582838
H         0.66009697580341    5.23639967200767   -1.76131886807949
H         0.04424963067110    4.33117898106147   -0.28343447566618
H         1.80109060179225    2.36177419383779    0.70474017324569
H         5.93355316330161    2.59382078067466    1.40230634590309
H        -0.15666683153505    2.44262700708344   -5.10255982954621
H         5.17600056045163   -0.91599640280799    0.15111543146581
H         4.07417094999893   -2.15616270571774    0.63723487506349
H         4.46252593625140   -0.82500518316890    1.79458596404500
