36
 energy: -50.521855518047 gnorm: 0.307906288557 xtb: 6.4.1 (79825abcba525fcdf90b791dcacef51065a7a4e7)
C         3.54536653469419   -0.17720226191342   -3.88094787100170
C         3.16256798108512   -0.59697405611689   -2.46931807557208
C         3.44716615647273    0.43744969490349   -1.31385606874086
O         4.85868895490532    0.71063649567718   -1.32227927339586
C         2.52599290637849    1.71709249711730   -1.42940029846479
C         2.77874862975323    2.72740099941355   -2.62984844425834
N         2.65108390095062    4.03849811321675   -1.98433145922225
C         2.05360634578882    3.93687633258283   -0.64459913354701
C         0.52640329250873    4.00768036896381   -0.58849789926611
C         2.51445345622392    2.55799517738693   -0.14236461538497
C         3.82768434261645    2.62560954705436    0.62003585039888
C         4.96621600703791    2.68958976441698    1.25225578978664
C         1.70968856229854    2.48216661841597   -3.68216781721449
C         0.82572633676390    2.59887653835461   -4.63350077936260
C         3.09270332703586   -0.35171236636684   -0.01175380947085
C         4.21152403082234   -0.98392093995115    0.76720718054063
O         1.89880371546781   -0.46248062388259    0.31341631414794
H         3.15012182102109   -0.95399509264189   -4.55739113256537
H         4.63555247876234   -0.12093522004495   -3.96186299105448
H         3.10736785711849    0.78367534790337   -4.13854570645420
H         3.66239482698104   -1.53484411193971   -2.18209160055342
H         2.09846705777320   -0.85734693372848   -2.40806145619335
H         5.05034105126295    1.31101955718849   -0.58191017117853
H         1.53997817598088    1.24410579801755   -1.56857143864879
H         3.73885266548000    2.65727334178385   -3.13976159765189
H         2.13102845717130    4.68944756808801   -2.56979445271309
H         2.48546164372320    4.66394157919725    0.05345779994456
H         0.06466481107514    3.20009437624551   -1.16597447849118
H         0.27546050335449    4.92172330844929   -1.13851120592000
H         0.14798867898686    4.01255580358558    0.44025224710755
H         1.84643890048447    2.10263775624764    0.59639115043289
H         5.90090916663002    2.78173127532689    1.75633697308725
H         0.10724742399938    2.34805919785851   -5.37958422328202
H         5.11404373526217   -0.97656287861422    0.15853728621640
H         3.88043334550798   -2.01458390914447    0.93000936531259
H         4.36753244271906   -0.56861028939056    1.76674147394578
