36
 energy: -50.514945334187 gnorm: 0.306539529089 xtb: 6.4.1 (79825abcba525fcdf90b791dcacef51065a7a4e7)
C         3.07669559277217   -0.60855888664515   -3.67842395508387
C         2.72771198733228   -0.72234531377680   -2.20170297173289
C         3.34937001244809    0.33645467110158   -1.21245833029825
O         4.71041455972277    0.68305874091013   -1.51990253310846
C         2.48359543000873    1.65496644844898   -1.31902949079491
C         2.79667140331629    2.47016494296830   -2.64685453726951
N         2.94493274846128    3.85453384296399   -2.18478589874909
C         2.31682540060473    4.08821954158105   -0.87594622962871
C         0.84183437291580    4.48383078190476   -0.96761376982668
C         2.60773944721026    2.72615575296437   -0.22319506330659
C         4.05054494282727    2.82017859455207    0.24571175321196
C         5.11990093950417    3.06905145328092    0.94898266766342
C         1.62119551566892    2.34256194981161   -3.60204001526981
C         0.48916794621949    2.14471212381305   -4.21800579983539
C         3.13113320828451   -0.34858146341041    0.17570200667007
C         4.34340054561961   -0.88656160905397    0.88225202304698
O         1.99293631199368   -0.36544742462818    0.67332118829565
H         2.91147805121986   -1.55546944964495   -4.21996298314792
H         4.14551094049628   -0.37229220213473   -3.67290690094563
H         2.53450347208753    0.22233693514100   -4.12241168582583
H         3.09679115983442   -1.69893426088555   -1.85244553184414
H         1.66286655698939   -0.70272091837803   -1.93792981675595
H         5.02734583208188    1.25734143895109   -0.80220433424655
H         1.45771591978377    1.25842762440489   -1.24394111755929
H         3.72158693402443    2.11545626882742   -3.10011173764007
H         2.67791156899784    4.44419776751429   -2.97088762257909
H         2.89923729686669    4.92065750633971   -0.46333288414818
H         0.16825827358431    3.62230734590007   -1.02192183952201
H         0.68503058237429    5.22049785500880   -1.76366377321476
H         0.56763967632962    5.06931283863017   -0.08241532732876
H         1.89847707238507    2.50586625145022    0.58164860775209
H         6.17092910493789    3.15633037825308    1.10377741511155
H        -0.26681677113592    1.91858468601245   -4.93432644854962
H         4.70228791253078   -0.09460002452292    1.53728767421087
H         5.11035110495882   -1.18926176182985    0.16214703203002
H         4.01758243658556   -1.73997301615895    1.48343576947162
