36
 energy: -50.512098591633 gnorm: 0.308892618720 xtb: 6.4.1 (79825abcba525fcdf90b791dcacef51065a7a4e7)
C         3.59956257089071   -0.15804981277237   -3.89753412653599
C         3.13827214915920   -0.63952573743278   -2.52974984535693
C         3.35890224304396    0.36438090326783   -1.33408481964265
O         4.73976166506056    0.74478572193932   -1.20911276533349
C         2.47637071996683    1.67288828932049   -1.42542400132391
C         2.86555776300078    2.73986929007881   -2.53707568964200
N         2.83607707761914    4.06268652489177   -1.90363148967516
C         2.10168574598597    3.95385469557739   -0.63437417424881
C         0.58009329227448    3.93011909032612   -0.79154528631519
C         2.51183811164298    2.54857817006115   -0.16224522028802
C         3.81227255367541    2.63325213328925    0.62012435031195
C         4.70960726388019    3.07543003167460    1.45637731919142
C         1.74984324680815    2.65887921510384   -3.56616612501275
C         0.87488803302568    2.66138311243690   -4.53285735139374
C         3.01585743701299   -0.43666978699699   -0.03619076726191
C         4.10237266265981   -1.36908539266745    0.42022292875982
O         1.98862641048335   -0.28763915500945    0.64644219784160
H         3.62538926348594   -1.07513773204549   -4.51030137552961
H         4.62888083763107    0.21207517653665   -3.85594057069046
H         2.95547427986048    0.56016338457769   -4.39833881758897
H         3.72708454852701   -1.54127681436049   -2.30155888836987
H         2.08240286632265   -0.93488207506171   -2.48777525685304
H         4.73134787844941    1.42743329720642   -0.51682796011177
H         1.45305720749409    1.29731160906778   -1.58998911616409
H         3.79865543688726    2.51769880981352   -3.05350388432997
H         2.61991608319908    4.86447234111093   -2.49301565914288
H         2.47843714747217    4.70625728273817    0.06872971782833
H         0.34040078244799    3.16797464125596   -1.54025090465587
H         0.19530793504977    4.87444434147105   -1.19298203615274
H         0.20043602886063    3.69631049690873    0.20982485518948
H         1.76854688811170    2.18022533089866    0.55272908961246
H         5.62783072614520    3.24848755525043    1.96936463257321
H         0.08460607215058    2.37824621882045   -5.18940111344006
H         5.03146854345838   -0.97177713383239    0.01525133753767
H         4.14582730694910   -2.42567694898315    0.13717220869921
H         4.15079577546960   -1.30662821970686    1.51093126296898
