36
 energy: -50.504474477973 gnorm: 0.302215581117 xtb: 6.4.1 (79825abcba525fcdf90b791dcacef51065a7a4e7)
C         1.39849681990161   -0.85448643959284   -2.99220044881992
C         2.20204048537426   -0.79434649123690   -1.70140900998603
C         3.32188171221936    0.30445454651963   -1.54420537294216
O         4.24310505334950    0.22733598574938   -2.64534064426552
C         2.56761295223220    1.69300812662436   -1.59313335979246
C         3.48447727434948    2.95328615233432   -1.90416973222147
N         2.78759080923698    3.98493844879960   -1.12827739959676
C         1.50714648654474    3.58372172890436   -0.52688184144353
C         0.28140808988261    3.86937397498200   -1.39663923021787
C         1.80801884868102    2.08998286295690   -0.31675597592230
C         2.69248066898607    2.04235005869059    0.91850108600407
C         3.55277953094553    2.30473058559805    1.86247791597711
C         3.46705804376187    3.32039642346172   -3.37907041304134
C         3.30899428638919    3.29489844257919   -4.67306057150857
C         4.12686096059935    0.03457675631947   -0.23154954256947
C         5.62618772341542    0.13481964752312   -0.24563092227064
O         3.47823988766138   -0.44612553570870    0.71270545737342
H         0.93627744609031   -1.85134871748169   -3.09129545812838
H         2.02346906679760   -0.63254343881366   -3.86304465067560
H         0.61101067790269   -0.10967827239377   -2.91088845642171
H         2.72500218818934   -1.74733155725563   -1.52746450884383
H         1.58179248581089   -0.57475947968353   -0.82338215834451
H         4.04730063100676    0.92578317981551   -3.29277318831426
H         1.88433647822912    1.62587376070081   -2.45565078829473
H         4.42101114295937    2.70222812069177   -1.40757809133515
H         2.63351832765885    4.82067303991231   -1.68932030654115
H         1.44232661798146    4.13946968427876    0.41617115719358
H         0.50481024453639    3.69628452566958   -2.45447110883252
H        -0.03406419634947    4.91716281021863   -1.33682945283807
H        -0.55940119573408    3.20454565285818   -1.16731129383462
H         0.86522409307046    1.53909467864927   -0.23300529207537
H         4.21720357605690    2.17035805945878    2.68511024109326
H         3.27693468138323    3.63683307439461   -5.68192859196223
H         5.97494510459617    1.08372271600311   -0.64939601390056
H         5.95766040121356   -0.69663276797835   -0.87587253648878
H         5.98844773896331   -0.02342404122581    0.77398517412309
