36
 energy: -50.516501804937 gnorm: 0.304462244455 xtb: 6.4.1 (79825abcba525fcdf90b791dcacef51065a7a4e7)
C         3.00579854332799   -0.24911078605879   -3.78878750413588
C         3.21748512213755   -0.76539763849358   -2.37313271831343
C         3.50125291202513    0.38941496400919   -1.33775606838962
O         4.80362625709209    0.97505870201445   -1.50491978387574
C         2.38397486116107    1.50118068698927   -1.46048808112043
C         2.75030449958798    2.54971081959231   -2.59718138158140
N         3.03125537971932    3.80362439542805   -1.88955615983215
C         2.16510748531081    3.80784589731655   -0.70129728724724
C         0.69052507160460    4.10916031119128   -0.97575325968178
C         2.27844792323931    2.36137868302047   -0.19059246667928
C         3.50153627845045    2.36083150275273    0.71187980485849
C         4.46489121852548    2.65172885006985    1.54096118611049
C         1.79592929487314    2.78335115704224   -3.75691649093839
C         0.85975831263827    2.94216193905428   -4.65045318226685
C         3.30408637793715   -0.30756622867791    0.04760799263502
C         4.52979666459448   -0.85656799770440    0.72174377906557
O         2.20435302070696   -0.35493076166405    0.62358079171570
H         3.03618151453612   -1.08307299708388   -4.51044177109117
H         3.79679269230485    0.46842581822467   -4.02897100034564
H         2.05601812605123    0.27811939854657   -3.82661294909662
H         4.07517862550405   -1.45483302566790   -2.34203809884292
H         2.40703635382334   -1.38023887160780   -1.96203632500886
H         4.95305150946387    1.58268159420275   -0.76074018697193
H         1.43164239981074    0.96297687046307   -1.59727117688036
H         3.71591357436284    2.25136870472748   -3.00377722333741
H         2.86490497971120    4.59757696639693   -2.50512633303079
H         2.61766500505648    4.52069270822481   -0.00169205225079
H         0.30006049454105    3.30990043640364   -1.61418715133216
H         0.64751939618479    5.07500795824282   -1.49174769233779
H         0.10174555475475    4.15320404596860   -0.05220191390339
H         1.37852702910730    2.07579211004923    0.36432791474880
H         5.26934697146178    2.66165949001981    2.24024050134442
H         0.10312166106949    3.04812392599612   -5.39344363228090
H         4.82873768590144    0.04370898786520    1.25579492452313
H         5.35279636868079   -1.16431879856723    0.06878690271209
H         4.25374203265402   -1.74329862643348    1.29914572495642
