36
 energy: -50.517599235756 gnorm: 0.313981614824 xtb: 6.4.1 (79825abcba525fcdf90b791dcacef51065a7a4e7)
C         3.27487019779962   -0.39124505777822   -3.74233351946529
C         3.08139352220261   -0.72959784557305   -2.27144061280634
C         3.46327397563296    0.37326407432064   -1.21125950382978
O         4.84921288745168    0.66636267559755   -1.45695263764689
C         2.46961658687182    1.58400625221865   -1.42607268830925
C         2.84043263901763    2.59372026395406   -2.59596907421227
N         3.00125025933741    3.92750888327660   -2.00680720624915
C         2.21439655615166    3.96961155282550   -0.76532512992191
C         0.74948538653907    4.29629430800405   -1.06167522293880
C         2.38251222574686    2.53943586788655   -0.22470745070699
C         3.69821914127199    2.69507699271591    0.52033800887170
C         4.88863685531314    2.65015115120564    1.05037315194196
C         1.66171804159818    2.47642198290893   -3.54848069484293
C         0.56707873343924    2.49842308566251   -4.25652416142278
C         3.12439123071484   -0.33721572878919    0.13939510306010
C         4.30610464671056   -0.88768345911376    0.88690185410989
O         1.96589415915708   -0.30330554618115    0.58676086050378
H         2.97522357670927   -1.25853536211032   -4.35488588628361
H         4.30557878069280   -0.08939393818087   -3.95386211749402
H         2.62493791577344    0.45844209680049   -3.93496020191347
H         3.73126305620204   -1.56825759588486   -1.97776463259116
H         2.03987624906768   -1.04363998203123   -2.12834452771173
H         5.07844225442326    1.55703243940294   -1.14151957266938
H         1.49601344385740    1.09761149903117   -1.60164924816601
H         3.72327222107283    2.42587735957631   -3.21172235040624
H         2.71379351916800    4.64360464919021   -2.67128839573177
H         2.65732768443779    4.74590662589151   -0.13004225294306
H         0.34135304854564    3.53791242071622   -1.73781253973961
H         0.65706927495030    5.25899932743099   -1.57705830675088
H         0.19455214657943    4.35765672108331   -0.11836614922597
H         1.58326966477393    2.22312904543431    0.45390527752142
H         5.68564007584046    3.03174954514299    1.64653400019962
H        -0.25392311497509    2.39848767928189   -4.92863327136205
H         4.04189303111151   -1.24048771382192    1.88228940379678
H         5.10635048988842   -0.14391950354564    0.81752236141644
H         4.54413821484619   -1.75202179204685    0.26068333061777
