36
 energy: -50.519583622751 gnorm: 0.299218724863 xtb: 6.4.1 (79825abcba525fcdf90b791dcacef51065a7a4e7)
C         3.03125904423101   -0.53721890332281   -3.68043250902008
C         2.96014747006225   -0.84755284768115   -2.19245476830171
C         3.29413518718274    0.33264282702606   -1.20164124617574
O         4.66337822899706    0.64384517371279   -1.51055091577617
C         2.41072974307800    1.63967905367629   -1.30482778448275
C         2.73130046963417    2.59675463819566   -2.53239661240899
N         2.97800931975946    3.92478529452607   -1.96017688139944
C         2.19094134128979    3.93922035806484   -0.71820073017006
C         0.68762645406169    4.10683851377837   -0.94723836176306
C         2.53884771685378    2.57746852217890   -0.09327999232306
C         3.94587020225654    2.66749645826329    0.47468503773456
C         5.22428015724363    2.86087933817602    0.64297336825916
C         1.66154765323534    2.52758412042472   -3.61000959477437
C         1.10678307666657    2.65696906354901   -4.78284403420896
C         3.02993554999999   -0.27651026059414    0.21364035668200
C         4.30518159736652   -0.69694214124761    0.88833452820770
O         1.87902764938718   -0.33014682943333    0.67832908627212
H         2.82168456980930   -1.47208372568274   -4.22752233215630
H         3.97963356102062   -0.07182225873940   -3.96715601064401
H         2.22742081256876    0.16093972885887   -3.89930208402063
H         3.69010661859547   -1.63543978908229   -1.95095947891244
H         1.96665576100143   -1.28844513689213   -2.04263691276093
H         4.96098285310080    1.31788746533251   -0.87617308562441
H         1.33970990809054    1.39229923341581   -1.38867171012784
H         3.61397487567384    2.24505839617718   -3.06524248933663
H         2.80701441564809    4.70603881392491   -2.59054459467585
H         2.51440358811993    4.82510427736894   -0.15874723451859
H         0.27059372316185    3.26879317038143   -1.51525285598629
H         0.47888581305027    5.07936923996040   -1.40720873755971
H         0.17755637051446    4.15691619049321    0.02171416113395
H         1.79243931503997    2.26382594085755    0.64418644592164
H         6.15994733149000    3.04619304575067    1.11881471981884
H         0.54645929613505    2.67139644995211   -5.68926054917882
H         5.10314535484209   -1.02203322712084    0.22301909724549
H         4.03556730442904   -1.53156524478475    1.54339494903202
H         4.74160454932190    0.08416850276769    1.51705667223988
