36
 energy: -50.519653545490 gnorm: 0.311844662696 xtb: 6.4.1 (79825abcba525fcdf90b791dcacef51065a7a4e7)
C         2.92169220040124   -0.42384017629435   -3.61140224355560
C         3.06402941682512   -0.81284753316822   -2.14721127953900
C         3.43993496404169    0.41330232139435   -1.22994760744346
O         4.80667983979160    0.78207584172959   -1.48117087672860
C         2.42562890707842    1.61554021617110   -1.38870407616714
C         2.80064797722230    2.56561181703073   -2.60624632809118
N         3.08985540951503    3.85460361394978   -1.96841774010445
C         2.15746645030623    3.98540137312447   -0.83893471246466
C         0.69251227753138    4.23847737567242   -1.20000471014755
C         2.38323085416004    2.60045857292069   -0.20893732149874
C         3.66672862636414    2.63173420918798    0.60473146028904
C         4.72999901424863    2.55449164236008    1.35542419610652
C         1.71591909446506    2.61882143715469   -3.66970169877537
C         0.78736529158183    2.69947143212137   -4.58147371193767
C         3.24283903643085   -0.32055521574212    0.13625050109208
C         4.50534669172283   -0.90418074294764    0.70518226263213
O         2.14996688729995   -0.45106376078158    0.71244446450692
H         2.53383706180679   -1.29872204981846   -4.16035677082037
H         3.80506953834978   -0.06694950850771   -4.15037548973653
H         2.16165867162782    0.34927680917043   -3.68966100164374
H         3.86176536531277   -1.56030903616093   -2.01742365484347
H         2.14959322551220   -1.23074248045292   -1.70786238048508
H         4.91989132962389    1.69793313965916   -1.17502495828283
H         1.42839751486854    1.17725409329179   -1.55824727002789
H         3.72871834399073    2.23777280066995   -3.07308253451271
H         2.94334015523326    4.59084055550998   -2.65649348009834
H         2.45840912921149    4.82894909729382   -0.20626805518343
H         0.22836560931991    3.43508823950738   -1.78139143878404
H         0.77102579442540    5.17495057307799   -1.76375553854933
H         0.09050124804906    4.37230997807618   -0.29379291885390
H         1.64397571193603    2.25946354759548    0.52357762459931
H         5.65910079750903    2.65919631024789    1.86732851160136
H         0.01595473525032    2.93759437736990   -5.27716400312297
H         4.25965942211074   -1.47728891371066    1.59751616353044
H         5.11059963131702   -0.10107147796828    1.13770525344750
H         5.16667758676089   -1.35594855511970   -0.03942344403243
