36
 energy: -50.519690211389 gnorm: 0.307431947959 xtb: 6.4.1 (79825abcba525fcdf90b791dcacef51065a7a4e7)
C         3.38935547942414   -0.39237738638955   -3.77969237412854
C         2.95304226695609   -0.74832108070925   -2.36605287055753
C         3.27338435121861    0.32746799721501   -1.25872279871952
O         4.67284384256052    0.62429990147839   -1.40190994024923
C         2.39012769161296    1.63749959521992   -1.31414163349024
C         2.78697268510463    2.51113776645834   -2.58100979322040
N         2.92674420099693    3.88697280784192   -2.09161425539182
C         2.22081687659166    3.99366397688879   -0.80612884463983
C         0.71412836607384    4.24850881501507   -0.87997715245540
C         2.52290819845374    2.63485949657939   -0.15166414623524
C         3.90973221187570    2.72591005358847    0.46382794031948
C         5.06062367866814    2.80747137528072    1.07115525210546
C         1.61562115800334    2.36661044996493   -3.53884741457877
C         0.80357490276917    2.64123430773008   -4.52129715191597
C         3.02347059512531   -0.37557428875486    0.11501867076168
C         4.29379874147319   -0.71003343731553    0.84483451241555
O         1.88677634048934   -0.57176341819880    0.57636181469313
H         3.54364427334431   -1.37081444053693   -4.26554921778420
H         4.38562857985394    0.06056226472221   -3.75723770243912
H         2.70339804057753    0.27664028871630   -4.29288143405365
H         3.56963412208606   -1.61345294247925   -2.07745710118357
H         1.88295949033747   -0.99046938394303   -2.35404317641464
H         4.91522812236734    1.26124437839436   -0.70844880227306
H         1.36255868180741    1.28077931560733   -1.49348109676675
H         3.68985350941741    2.22365857488528   -3.11849563109926
H         2.48615414739726    4.49955663156684   -2.77541338210639
H         2.61541323176259    4.86212259314614   -0.26531491813519
H         0.33821254719897    3.62756148357396   -1.69972618258611
H         0.53226305242757    5.31643788876001   -1.04554863642258
H         0.19285183020645    3.98852842727090    0.04858583683341
H         1.86651714895296    2.34529793328406    0.67577697173479
H         6.05582577512769    2.80374949427787    1.45299048018173
H        -0.11853658948376    2.83784914922766   -5.01810175519712
H         4.08872230468368   -1.31172172729095    1.72857081741210
H         4.79036927789160    0.23889341827523    1.07143388114238
H         4.92126521964456   -1.32537740179719    0.19404422712096
