36
 energy: -50.518950227198 gnorm: 0.300515533737 xtb: 6.4.1 (79825abcba525fcdf90b791dcacef51065a7a4e7)
C         3.03749206119967   -0.87553602980888   -3.47687422026072
C         2.77897988061845   -0.86602573340074   -1.97736670836495
C         3.26706061845152    0.39430880513190   -1.16529829396532
O         4.62652794247279    0.56130419921912   -1.60240207728766
C         2.38530240940665    1.68715980232650   -1.38987583937701
C         2.76260416828353    2.46473677048064   -2.72355568678178
N         2.96541300036417    3.86917527585157   -2.35155143003009
C         2.36898136536076    4.08960872326042   -1.02570546725804
C         0.89637918402760    4.50310967991104   -0.99456887716169
C         2.58460014232726    2.75149226894012   -0.29846018911658
C         3.93858666280864    2.73996474169743    0.39218380803153
C         5.10734922128317    2.81957488435617    0.96464006475604
C         1.58814849546662    2.37191351005108   -3.68399470600003
C         0.62303860754669    2.52379286102001   -4.54744151567041
C         3.18519153299172   -0.15773954017592    0.29498627182361
C         4.47858258742796   -0.67924186574249    0.85480996544877
O         2.08323434184085   -0.24013512422222    0.86270346013327
H         2.79941661102130   -1.88487885891079   -3.85336871498013
H         4.09729234443820   -0.74469144610081   -3.71754346017371
H         2.42970823195861   -0.11958559670143   -3.96740763122894
H         3.19600341870801   -1.77819534676028   -1.52353400102848
H         1.70762052499121   -0.97523625096903   -1.76732057508222
H         5.02185820578732    1.38274896278933   -1.26434996074681
H         1.34265951071250    1.33469342438690   -1.45290988655460
H         3.65442067453471    1.97703041394648   -3.11539099147973
H         2.45191920764648    4.38112087761777   -3.06653087394704
H         2.97492209281113    4.84999171006343   -0.51869471975707
H         0.26500217139700    3.72361987376419   -1.43347144853476
H         0.69723632177291    5.46037056557142   -1.48949829319288
H         0.53601048239818    4.71904672232921    0.01788054999839
H         1.81634694334523    2.71262983901603    0.48104647051019
H         5.86644001891055    2.80323879812356    1.71280681840660
H        -0.32087011351698    2.30535708272365   -4.99138287493664
H         4.89653010571732   -1.47497460799726    0.24064038795074
H         4.23591269476310   -1.02797191053999    1.86371552362951
H         5.28324236885803    0.05711288831193    0.93351622127796
