36
 energy: -50.516639010435 gnorm: 0.304589270213 xtb: 6.4.1 (79825abcba525fcdf90b791dcacef51065a7a4e7)
C         3.57568753291252   -0.52564751799791   -3.67736168047777
C         2.93277973021432   -0.74395022014059   -2.31557783020943
C         3.26618988816571    0.37857732845879   -1.25969402305530
O         4.65842137017787    0.68766131438037   -1.44205949566263
C         2.35382584986811    1.66904522114838   -1.30069162098014
C         2.66405128948602    2.57134609653159   -2.57163528914007
N         2.99725118288335    3.91116752434451   -2.07583040704526
C         2.31350655081628    4.05221032532673   -0.78169388322365
C         0.82199805274428    4.36674628160113   -0.91199840485130
C         2.58045675896854    2.67191684330936   -0.15762631145120
C         4.04210891150206    2.74573049512561    0.25289304051497
C         5.11178072779195    3.07359708702044    0.92248667545609
C         1.52139662200883    2.61333614913796   -3.57312545217488
C         0.42542235422977    2.18554016947940   -4.13515377605746
C         3.02339756219389   -0.32752733309729    0.11375383433500
C         4.15596684329357   -1.13348350590863    0.68467337998136
O         1.93089968783421   -0.28933717742376    0.70400072106991
H         3.63620548768863   -1.49913780527115   -4.19297316980275
H         4.60479210630369   -0.16429052667962   -3.58471434111412
H         3.00968151186303    0.13719275439622   -4.32679622095282
H         3.35200592727278   -1.66391898029570   -1.87987949663866
H         1.84717856139767   -0.84350576320699   -2.43973889509204
H         4.84688165670723    1.56876052824063   -1.07670535850731
H         1.28400472379563    1.41078652626155   -1.36468588509571
H         3.52377654006774    2.13992207719923   -3.08298144609380
H         2.70881395267968    4.61497118220202   -2.75290067822646
H         2.74059450049563    4.87319313439110   -0.19348518698510
H         0.30556644676063    3.43093711797464   -1.14956180524221
H         0.72748126111656    5.10210203635887   -1.71901755404079
H         0.39717181793433    4.77646057963565    0.01169262509338
H         2.04919273957996    2.32773769938810    0.73604766765553
H         5.98298598353387    3.57903594487143    1.27144540388560
H        -0.36525147967174    2.02314472125939   -4.83101611883429
H         4.41540839682378   -0.87791544733434    1.71056325676145
H         5.07018324291497   -1.00379931801791    0.09664096015530
H         3.82701686316003   -2.17640153568017    0.68673733962603
