36
 energy: -50.518750134441 gnorm: 0.309562703717 xtb: 6.4.1 (79825abcba525fcdf90b791dcacef51065a7a4e7)
C         3.08802431843001   -0.44483715779333   -3.70651845441659
C         2.91225508151879   -0.74840897711027   -2.22584593978506
C         3.39805096822384    0.38166224379086   -1.23940665928446
O         4.77971074788666    0.65850524520206   -1.52484102607997
C         2.46977991818190    1.65561356810127   -1.36088593738590
C         2.89985076265261    2.62166142314161   -2.54725648684570
N         3.01573947724086    3.92435323326871   -1.88277930294935
C         2.11794688195113    3.91247783816804   -0.71829806703730
C         0.61612139450109    4.08605047362522   -0.95261081888740
C         2.46099096154774    2.54378452763051   -0.10598098173419
C         3.87133567514532    2.60676046687192    0.45736917416208
C         5.10569455711016    2.92297185756163    0.73380798090413
C         1.81067756068441    2.58074188234301   -3.60670571533383
C         0.85409453568586    2.44620426848808   -4.48243016418039
C         3.09980897017925   -0.23067922500234    0.16771116478160
C         4.28990906159157   -0.83751345982940    0.85592744534798
O         1.92481254494959   -0.27321743362752    0.56892854743066
H         3.10789481298423   -1.30594144066540   -4.39594252209545
H         4.08234368165507    0.00688168613146   -3.78066506741053
H         2.34061555870078    0.25699755188164   -4.06748029808459
H         3.44783229831538   -1.65371879619167   -1.90104240062743
H         1.84094678312166   -0.93069426322581   -2.07442670927449
H         4.92566219432815    1.43899168598529   -0.96370303211538
H         1.43434067533197    1.31148505830946   -1.51821108891849
H         3.80821522698584    2.28121586844873   -3.04293771486941
H         2.90426783978465    4.66541475711758   -2.57224406650938
H         2.46368285221915    4.72163520428999   -0.06397601332464
H         0.15617861231429    3.10124291334721   -1.08483587655879
H         0.34257669603648    4.72998628880641   -1.79610437218103
H         0.20942260038942    4.50112514092219   -0.02317154445311
H         1.76308143043330    2.26580001666354    0.69088839417028
H         6.11263115402258    2.85641069465208    1.07715550180482
H         0.23522199907770    2.50249200175051   -5.34821895976324
H         3.99412608642209   -1.60752944443557    1.56632368024634
H         4.69700138692231   -0.01924384963752    1.45850725842336
H         4.95364779448752   -1.05819085312105    0.01530698770465
