36
 energy: -50.515329048005 gnorm: 0.315137975040 xtb: 6.4.1 (79825abcba525fcdf90b791dcacef51065a7a4e7)
C         3.40745152853848   -0.34540078014539   -3.86821501005586
C         2.95901082407599   -0.67202880976452   -2.45129693771555
C         3.31122637578693    0.39558977161243   -1.34574015350934
O         4.69028155841416    0.76024694797840   -1.52554708860674
C         2.39999055125589    1.68591511162540   -1.28166131370693
C         2.76493740545573    2.65479855019586   -2.48738232050086
N         2.97135410133115    3.95853945263388   -1.84736833977539
C         2.10723829939405    3.95085487263896   -0.65764822507399
C         0.63916050120219    4.07536992599362   -1.06965951504876
C         2.42015459959336    2.58104383476486   -0.03184161171602
C         3.77304555362548    2.61645062714795    0.66013668411716
C         4.82078716523417    2.59998566845603    1.43603377427270
C         1.63539652172509    2.68284100036206   -3.50412042027336
C         0.74969586062682    2.72479417919496   -4.46005925477719
C         3.20832059595408   -0.33909674802267    0.03031836661985
C         4.46126019109143   -0.98501687043455    0.55104596535081
O         2.11097723425988   -0.52022941226131    0.58387955886030
H         3.53908702140867   -1.23825155852233   -4.50279404454421
H         4.37234795427297    0.16758344406340   -3.80464850073517
H         2.70348038785402    0.38337886729769   -4.26164877132353
H         3.45861314971653   -1.58161933139223   -2.08391599070384
H         1.88753775334884   -0.90705019997804   -2.42747304299172
H         4.90349616610488    1.50448792061965   -0.93734503300473
H         1.40603367204403    1.24509610469458   -1.46342596121549
H         3.66861212285503    2.32441160635852   -2.99821060665341
H         2.80348474877752    4.73679675544258   -2.48226614403715
H         2.36306789443180    4.82396617223094   -0.04557451548456
H         0.21265550187415    3.11060928267586   -1.36327005031425
H         0.52931106269852    4.72232393659253   -1.94735252660276
H         0.11384964346827    4.61154453168839   -0.27083941743397
H         1.77475247561405    2.21450005444753    0.77342583001094
H         5.71066630295045    2.77044939162815    1.99754641145390
H        -0.05027050219351    2.54861542745913   -5.14180454257503
H         4.06859013381615   -1.52822795795643    1.40883786482112
H         5.08619151559333   -0.16703242606334    0.92354299474611
H         5.04817642558970   -1.60505104835086   -0.13231141716622
