36
 energy: -50.516185781054 gnorm: 0.312195844909 xtb: 6.4.1 (79825abcba525fcdf90b791dcacef51065a7a4e7)
C         2.87968257580140   -0.65070686907782   -3.68309889607665
C         3.01654020633769   -0.82727621388896   -2.17792946076572
C         3.39582203889492    0.42235785256545   -1.29436787604444
O         4.77057668981168    0.76749818081213   -1.53525459836053
C         2.42177253519386    1.65221948592994   -1.48946861141901
C         2.88611931125264    2.70376914419268   -2.58687915684189
N         3.10362441528258    3.97138453229272   -1.88132344622516
C         2.15001920790504    3.93673114043678   -0.76256279802996
C         0.70088359639318    4.17596082713687   -1.19068063054951
C         2.38291150715708    2.51686494165777   -0.21880365088643
C         3.71850683342376    2.55627882269477    0.50578815014115
C         4.70549646528382    2.55900856672144    1.35778225109716
C         1.76267252740754    2.68774439943192   -3.61060563134222
C         0.78393714618399    2.74483184759024   -4.47017697117528
C         3.26841238437544   -0.19476913309531    0.13630051254673
C         4.49915772145713   -0.80515344472587    0.74533629787041
O         2.13021162584852   -0.25370671951722    0.63069600247167
H         2.54180076256208   -1.58319623296730   -4.16631772504680
H         3.85610566450044   -0.43485893986401   -4.12832496567529
H         2.25870856501344    0.18326648121378   -3.99990324403197
H         3.84269946753600   -1.53205921048379   -1.99718662586687
H         2.14628949436986   -1.27627597488636   -1.68303543277216
H         4.96499860924704    1.51689893494792   -0.94709187932672
H         1.44793685386013    1.23352574588821   -1.79220561864682
H         3.82403558556686    2.35174548478958   -3.01480611508651
H         2.91748899070360    4.68401093672152   -2.58451402570304
H         2.33991810561887    4.71081061602265   -0.00947200840959
H         0.20886443609438    3.27575223781644   -1.57332721028554
H         0.69405437869922    5.04231943528612   -1.86175256539736
H         0.09183668158333    4.44562112732627   -0.32010987807104
H         1.68780500227639    2.18006959548699    0.55756595567888
H         5.61254520567147    2.64878574025619    1.91045020562711
H        -0.03031935019277    2.80234740512990   -5.15533395105332
H         4.26373534423301   -1.43092403188187    1.60444192244770
H         5.21748901806038   -0.10459798108911    1.18307358754942
H         5.10987545076688   -1.27162990651993   -0.03268293977525
