36
 energy: -50.518179841105 gnorm: 0.303785071338 xtb: 6.4.1 (79825abcba525fcdf90b791dcacef51065a7a4e7)
C         3.07021301067384   -0.50243076271781   -3.68137046560110
C         2.87337633031906   -0.80991345714721   -2.20415975818822
C         3.34595866301490    0.30338343714962   -1.19254866477028
O         4.72264374375694    0.59271621591075   -1.48940435458624
C         2.42107476891571    1.57153927383931   -1.38166998330745
C         2.76319845794468    2.54720092499995   -2.58861662211798
N         2.99157466543087    3.85600303256551   -1.96664601006538
C         2.19847680714582    3.89599313368868   -0.72907350444518
C         0.72223061914661    4.20563448322499   -0.98466918405817
C         2.48814520436509    2.49803449264463   -0.15659059258924
C         3.89809150201502    2.56351451662582    0.40747091089976
C         5.13932338505322    2.71563859799840    0.77659361561029
C         1.64145959079219    2.49864993893874   -3.61318974865178
C         1.02826034166900    2.72889407984488   -4.74058459369248
C         3.10031485890492   -0.25582744381639    0.24649032576193
C         4.33817608478861   -0.56754876299897    1.03943234521154
O         1.94467541112635   -0.29072858871378    0.70111198071103
H         2.81918284511832   -1.35776228174209   -4.33144185855647
H         4.07872742300541   -0.10821330811634   -3.84171355073168
H         2.34759470196663    0.26240707360491   -3.95400782617938
H         3.41175631401912   -1.75170767167395   -2.01681834742180
H         1.82230960015392   -1.08408717473953   -2.04941908961051
H         4.81880254995060    1.55990042824633   -1.51479991357811
H         1.38793555933015    1.18723727202640   -1.39733551373077
H         3.65596429799636    2.22475364843118   -3.12315004251320
H         2.74087512544693    4.61826723067114   -2.59359322043532
H         2.73269087740072    4.68290158448533   -0.18336591433869
H         0.24407466096829    3.41681454559852   -1.57459014980943
H         0.61787023544346    5.13685539787121   -1.55291026995170
H         0.16844112301641    4.42681473527916   -0.06491664045791
H         1.83890778672038    2.16368327896574    0.65953068882323
H         6.07089999662382    2.80804420838017    1.28636359710786
H         0.17233036344638    2.67770868664048   -5.37345560669595
H         5.22343787334300   -0.11134340490770    0.59981520845617
H         4.55982430834861   -1.63829327850025    0.98680169748468
H         4.24012485468654   -0.16563192609407    2.05172636078115
