36
 energy: -50.524222547593 gnorm: 0.302492387720 xtb: 6.4.1 (79825abcba525fcdf90b791dcacef51065a7a4e7)
C         3.05123074254043   -0.62508149335490   -3.62891169703248
C         2.99790386332232   -0.86969410080148   -2.12799108266140
C         3.34587255826556    0.35944158476598   -1.20372687358016
O         4.71246926659703    0.60260630420961   -1.57840401592786
C         2.41933487626409    1.62124551686206   -1.42457773886555
C         2.71535246860570    2.57663320535192   -2.65960503924048
N         2.93695811622965    3.89143882216165   -2.04793255526439
C         2.14691963942487    3.95502040679533   -0.80939078401612
C         0.64245237099420    4.19829907371974   -0.94319460405481
C         2.43095280740214    2.56635748125254   -0.21200206562059
C         3.76597056478957    2.59236340032084    0.51425743884962
C         4.97317096943402    2.56164286814393    1.00596197653718
C         1.60410705451560    2.59350027296045   -3.69654983128680
C         0.90803574568955    2.89280733192212   -4.75765530750544
C         3.26075556312452   -0.12385064521061    0.28054893458623
C         4.47035615955048   -0.85416643388895    0.79214733458450
O         2.17741206802920    0.03548382307042    0.86738868930388
H         2.77843005563688   -1.55923357876078   -4.14866225059534
H         4.03760762628741   -0.27968247090970   -3.95445553190449
H         2.32885504963822    0.12438220175569   -3.94190178613756
H         3.73891432789509   -1.63570478056227   -1.85220620750319
H         2.03594177431382   -1.29737972966588   -1.81884528231500
H         5.09956576873029    1.25803813278309   -0.97350553631796
H         1.40988657256824    1.19951878122064   -1.56048490558111
H         3.67834421905038    2.34044736349943   -3.11081697660807
H         2.73470090975039    4.68695697407730   -2.65059553436099
H         2.56669780649834    4.80699607354260   -0.26136695910778
H         0.11582951730066    3.42106129801873   -1.50661857568090
H         0.39902011683952    5.11291215888644   -1.49563017197062
H         0.20347145938965    4.35771414848832    0.04848621586688
H         1.72691174124134    2.25615359251355    0.56739106147008
H         5.80767430221349    2.58762601290619    1.66865971087490
H         0.19897161757684    3.03904398967468   -5.53970689373320
H         5.32632850570969   -0.56117529874729    0.18671976942948
H         4.35638156504828   -1.93809473205767    0.68967303277738
H         4.59769827003740   -0.59508269911895    1.84692218031023
