36
 energy: -50.515314444982 gnorm: 0.319266271378 xtb: 6.4.1 (79825abcba525fcdf90b791dcacef51065a7a4e7)
C         3.17996284321301   -0.64320868666217   -3.69874027078978
C         3.04906058979632   -0.85500862401965   -2.19759166209648
C         3.37506046658410    0.34486927018032   -1.22798444274667
O         4.74157590032922    0.68277533091874   -1.52047996961880
C         2.39405679418228    1.57851615024194   -1.35104326911460
C         2.70108093094773    2.42183201722214   -2.66262208169872
N         2.97369821778760    3.78932594208637   -2.20698376291474
C         2.27230910750742    3.94462960481230   -0.92397042917118
C         0.80767897422947    4.37250781887672   -1.03482411091261
C         2.42507460661594    2.59649267450107   -0.19931716505090
C         3.78902141763002    2.68770801461074    0.46531087715321
C         4.96894136311816    2.67576772191149    1.02001462941217
C         1.54254342828168    2.56221053283819   -3.63652663049664
C         0.55562910406159    2.89048834813951   -4.42283355105273
C         3.20477021652553   -0.19142703149691    0.23053481504112
C         4.37733932669877   -0.79928055700257    0.94734959511533
O         2.08552785661759   -0.25121189050344    0.76637415203289
H         3.17193071522294   -1.58375603943031   -4.27537458197319
H         4.21224413093310   -0.29831405229881   -3.81562339138611
H         2.41018796169195   -0.01009825056306   -4.13244877980077
H         3.67917652384287   -1.69188162932827   -1.85917824285213
H         1.98914435132145   -1.03821071323423   -1.98109282841411
H         4.96804334456662    1.59202511834849   -1.26103042035454
H         1.34674344816973    1.23839332308084   -1.40359109737798
H         3.58575366986179    2.07715203318820   -3.19673715702786
H         2.67478776827815    4.51170382137276   -2.85950388958290
H         2.83312856369678    4.71707118872564   -0.38432063925291
H         0.32605417638340    3.53658174491512   -1.55264832568186
H         0.64637164770724    5.35878885077919   -1.48448074234727
H         0.42404059963089    4.34881842673276   -0.00827227730992
H         1.73428450905447    2.43954226211288    0.63586515705510
H         5.92607311205314    2.60062535426246    1.48314706674848
H        -0.28768761691696    3.14101735372670   -5.02434322869254
H         4.33955313340826   -0.46799433800955    1.98363943877395
H         5.34963958102708   -0.51012055812934    0.53575458912162
H         4.20411052842914   -1.87832058480313    0.98678015539291
