36
 energy: -50.505277215947 gnorm: 0.306609985435 xtb: 6.4.1 (79825abcba525fcdf90b791dcacef51065a7a4e7)
C         1.56459956898660   -0.90267430853853   -3.08355377358615
C         2.11289186217917   -0.79326686857861   -1.66833387608613
C         3.25134396947470    0.28965596343410   -1.53670550438944
O         4.14641733395729    0.05926333535727   -2.63800542945524
C         2.52958871353365    1.69577655947609   -1.57263015885334
C         3.40502615387010    2.90873126301326   -2.10931877282426
N         3.01569089984096    4.03834426590935   -1.25822617531762
C         1.79166832740298    3.69755172653938   -0.51807868207259
C         0.42834037585431    3.99551978298969   -1.14502498778201
C         1.88213945526935    2.18288628986222   -0.26601432482102
C         2.65716862932404    1.87943748127833    1.00585446077148
C         2.96631854960786    1.93834195917598    2.27116332801946
C         3.30307051210681    3.06445632993171   -3.61788103548118
C         3.25422325348699    3.12249944513462   -4.91952988997993
C         4.13828253424232    0.09813256377361   -0.26369736344557
C         5.48657605336676    0.76157971311402   -0.25065336124397
O         3.80877931678930   -0.69832148714215    0.63100374587636
H         1.14673766310496   -1.92163982826952   -3.14914090904290
H         2.37786691699252   -0.86011029102820   -3.81499287340321
H         0.74348122301811   -0.23298889797089   -3.32598187023325
H         2.59347306304658   -1.74836487328403   -1.40612082646675
H         1.27769406872816   -0.71669597356154   -0.96091693635351
H         4.08349634817235    0.86067342555281   -3.18492368259805
H         1.67188215451848    1.56061612211151   -2.25188062535538
H         4.45260341223919    2.65117880761498   -1.95773480987267
H         2.87444852123177    4.89100712087024   -1.79672076072611
H         1.84626197918650    4.26617409400207    0.41792051566957
H         0.32865622698501    3.45567794181980   -2.09239535917648
H         0.18752306091625    5.04306358817799   -1.35861434032727
H        -0.30453458594785    3.56660574502179   -0.45186173441840
H         0.85967395921460    1.79944640212550   -0.18299569141116
H         3.52700054530418    1.90753160039788    3.17721280650211
H         3.20323329116693    3.23479158039186   -5.97809130549216
H         5.60813201697870    1.62161933467700    0.40557144270279
H         5.82230376967956    1.00575572171459   -1.26359794148261
H         6.18792618726477    0.05048922179941    0.19471016989457
