36
 energy: -50.516420784152 gnorm: 0.295250362200 xtb: 6.4.1 (79825abcba525fcdf90b791dcacef51065a7a4e7)
C         3.06966946137579   -0.66496187337073   -3.63267346890070
C         2.81778267517578   -0.82542455545986   -2.14061230026692
C         3.29730000803494    0.35052471089930   -1.20609237789377
O         4.68039677821871    0.66395722987335   -1.44252833942440
C         2.44872119606905    1.67896627224469   -1.32672960542660
C         2.82812969063682    2.48239913180913   -2.64439016314238
N         3.06072776831804    3.86414413784276   -2.21005735000723
C         2.32029897063815    4.09642252761531   -0.96105731896761
C         0.82482941208205    4.27687394161919   -1.22848546568831
C         2.59081854892362    2.76223076459762   -0.24503754790895
C         3.98462179721202    2.83810677030687    0.35659096054305
C         5.23405608502774    2.97794691103147    0.70214641687104
C         1.63347020711778    2.38031870359788   -3.57861376258141
C         0.37110611514669    2.27076920101244   -3.88599083412775
C         3.10239127183575   -0.24130191254185    0.22765891233737
C         4.30169534123243   -0.85676889199171    0.89181086021057
O         2.02394915603571   -0.17833562924891    0.84117283674387
H         2.87145209450558   -1.58048313951710   -4.21553850714138
H         4.14302562064149   -0.47766104798795   -3.73776192522160
H         2.54470461022567    0.18048646248914   -4.06983966021727
H         3.36776438477079   -1.74318085364580   -1.88144121228551
H         1.77604333378079   -1.02700460116488   -1.86132427029461
H         4.86318298432080    1.36268678750012   -0.79160364041848
H         1.42002815331080    1.28290401411906   -1.34207169673992
H         3.75320387867880    2.12918567247596   -3.09849046710713
H         2.95218756749079    4.56525869536742   -2.94054840233616
H         2.77028360964090    4.91779192124029   -0.39073066229254
H         0.52934939455080    3.75002735048288   -2.14172201232087
H         0.62987671114487    5.34281429259187   -1.39196643488200
H         0.16739598180681    3.90384270619535   -0.43464843318167
H         1.84036573175803    2.50012182161905    0.50827073925823
H         6.26291922806849    3.19828139061587    0.87282899605793
H        -0.43646482851083    2.45687194660328   -4.55603318272489
H         4.61504115192410   -0.22399048857763    1.72035228520475
H         5.10369613804415   -0.93906410432582    0.15126108879804
H         3.99821387174740   -1.81393149399069    1.32497262827956
