36
 energy: -50.518169689715 gnorm: 0.301369588769 xtb: 6.4.1 (79825abcba525fcdf90b791dcacef51065a7a4e7)
C         2.61227404883963   -0.79021216055260   -3.46881414912778
C         2.66868061186907   -0.95072768528116   -1.95669813714045
C         3.28070985152084    0.31642361089825   -1.24545356422067
O         4.60059891271029    0.62798509830641   -1.72286416551072
C         2.41869715121675    1.62945730822835   -1.42510024190234
C         2.90383945207874    2.58014011785762   -2.60260761758525
N         3.10437539053972    3.88531735994688   -1.96365238245565
C         2.16623082887267    3.94925425698666   -0.83317195943656
C         0.70204751530746    4.12550911532898   -1.24012549514949
C         2.49614382386950    2.57857633760819   -0.21808473259808
C         3.91274479139553    2.66084004214528    0.32677853335177
C         5.01845480711822    3.01766899487939    0.91849500216544
C         1.87677697332064    2.55840006536570   -3.72290909547353
C         0.79118028515295    2.69326555103754   -4.43237081676262
C         3.33977280437025   -0.15659588131210    0.24338995997741
C         4.61408711193518   -0.74079392870388    0.78474320168646
O         2.36086290535816    0.05223610115511    0.97927452397371
H         2.25853824801373   -1.70398796034273   -3.97585038006683
H         3.61701849328054   -0.57736625876052   -3.84750115939156
H         1.95788841673968    0.01828743378416   -3.78439791942228
H         3.30633643827608   -1.81712837489533   -1.72287972691161
H         1.64682780769373   -1.05115543107834   -1.56993168114702
H         4.81975802997059    1.45657351046524   -1.26379197176964
H         1.36227289690588    1.37606812341774   -1.61237483777041
H         3.81869684601222    2.26412537304796   -3.10250730800443
H         2.95952885216991    4.65219536678509   -2.61777574663737
H         2.48354018622490    4.70167912001442   -0.10134004211251
H         0.48700217496252    3.70262493320444   -2.22693917126661
H         0.60403907373824    5.21367060670599   -1.32533307713401
H         0.03293179212253    3.61788682083617   -0.53574491008552
H         1.85440360846889    2.18993553454232    0.57971332467287
H         5.87064455064729    3.03489946288919    1.55858482197316
H         0.09002325073397    2.55765363443197   -5.22341443262462
H         5.28106008817527    0.10850419732438    0.92227406905739
H         5.16505673914529   -1.42344243020088    0.12990335414997
H         4.44525159320740   -1.22374232432326    1.75125537146810
