36
 energy: -50.514665691641 gnorm: 0.311836118566 xtb: 6.4.1 (79825abcba525fcdf90b791dcacef51065a7a4e7)
C         3.11661579482976   -0.39856075175924   -3.74114342156206
C         2.96948855653240   -0.72234041775713   -2.26162928215754
C         3.40391239254456    0.43209028181570   -1.27944458045434
O         4.76904869094187    0.77440594463627   -1.57324973684665
C         2.37275346956523    1.62950208750316   -1.32753405591023
C         2.80311941065571    2.63176585902381   -2.48336146200067
N         2.96907472605245    3.92782732729790   -1.81654094301139
C         2.09254498775698    3.93434260456447   -0.63592995607722
C         0.64843509076603    4.22499075660295   -1.04894325973876
C         2.34220133741633    2.52326401088623   -0.07694717541350
C         3.61371177571230    2.58145211484167    0.75388188835290
C         4.72884522001481    2.98144760752057    1.29842841982197
C         1.79287980260374    2.65905770587883   -3.61873649346375
C         0.89921379173120    2.73185403920741   -4.56536554842336
C         3.26382805022312   -0.41648787741360    0.02599881225559
C         4.52853442655012   -1.11671542091114    0.43639722409242
O         2.20237237779759   -0.52637847191619    0.66210997693321
H         2.90319584401367   -1.32505754964958   -4.30083671476526
H         4.14879320898571   -0.10363629540301   -3.95526484248619
H         2.37556834477649    0.35848654480472   -3.98448133145469
H         3.50761585440236   -1.64730822435169   -2.00321152470157
H         1.93737093074613   -0.95618140164601   -1.97195913667281
H         4.92741754791499    1.66168626749164   -1.20857222417792
H         1.37771141363767    1.20051213645865   -1.53043549970714
H         3.74889072820378    2.37742251534383   -2.96038888229623
H         2.91600226729578    4.76349815325651   -2.39602118901902
H         2.50655056565744    4.65462909921715    0.07974672199183
H         0.11387049572907    3.27120805993112   -0.99049648594945
H         0.47355676688552    4.65185688823251   -2.04300778985018
H         0.14609557524118    4.91545800830461   -0.36158728262762
H         1.59584259902292    2.20622505750536    0.65911590340099
H         5.62165584080359    3.14844975702589    1.85631613066544
H         0.33083174080312    2.50028304413582   -5.43661666025635
H         5.09116564637430   -1.48418447616201   -0.42004168423481
H         4.25736465106617   -1.77942566613432    1.26445146981528
H         5.19253584320652   -0.35070541868662    0.84654496368872
