36
 energy: -50.517721988847 gnorm: 0.312232977131 xtb: 6.4.1 (79825abcba525fcdf90b791dcacef51065a7a4e7)
C         3.38130673015880   -0.37652009904484   -3.75339065144351
C         3.09783242205761   -0.79042856722311   -2.31681003141053
C         3.45658781895941    0.39997030269561   -1.34708524229267
O         4.81391715027823    0.76513605133901   -1.64942551028542
C         2.35917660939966    1.53518989123199   -1.42684394967780
C         2.79549748922563    2.64360924362570   -2.47884923195627
N         2.98836008843016    3.89312987722665   -1.73489474103967
C         1.98294753291518    3.82017025199290   -0.66437542328829
C         0.53805592542463    4.21620693711023   -0.97413808030977
C         2.20964036741452    2.38648418164444   -0.15536909978199
C         3.49984488435344    2.44839227971750    0.64584327803155
C         4.68222836866786    2.68942786348179    1.13972692789031
C         1.76400620127178    2.77500424335415   -3.58752700780972
C         0.83363935608165    2.83099624961506   -4.49929847912275
C         3.30490578472568   -0.22709548510193    0.07687823939059
C         4.49786669007388   -0.93844946181429    0.65050483064126
O         2.22664284273688   -0.29113121634053    0.69059636965208
H         3.41132854178464   -1.24049326132670   -4.43884673144260
H         4.40394388279493    0.01250898933434   -3.78637934742890
H         2.64194362023067    0.34312804986400   -4.09534679283817
H         3.64442925270170   -1.70160440902579   -2.02885751438184
H         2.02672471611506   -0.97962879687126   -2.17262701866646
H         4.94690791595567    1.64731996581427   -1.26290028367502
H         1.37933254168519    1.10571172478713   -1.69285929391876
H         3.66401677904611    2.32938872435294   -3.05648993318537
H         2.92762431454481    4.77873937262975   -2.23386042349465
H         2.35408867789592    4.53693526162280    0.07785670234984
H         0.20179361278270    3.77005458799015   -1.91581344716223
H         0.49425432034945    5.29814494755586   -1.14281817469381
H        -0.13350583374194    4.02328112867098   -0.12954783263519
H         1.41654635475458    1.96999403643295    0.47462435881694
H         5.58549185317068    2.52603347565681    1.68162781666319
H         0.06102462095409    3.04555053720085   -5.20129184570565
H         5.25996212587001   -0.29568396643359    1.08769821924917
H         4.94275613508999   -1.58355740785910   -0.11389091962017
H         4.11740282753440   -1.51616367067298    1.49749001977763
