36
 energy: -50.518391765895 gnorm: 0.305180645660 xtb: 6.4.1 (79825abcba525fcdf90b791dcacef51065a7a4e7)
C         3.05600537248206   -0.25545871290427   -3.92625247066728
C         3.20423371973149   -0.77103685096334   -2.50229695796499
C         3.42547267258540    0.30523070919215   -1.37144660837292
O         4.78623982428847    0.75760738661584   -1.47520923996166
C         2.43281400716634    1.53253678509678   -1.45945173696807
C         2.90655750945197    2.60638191307513   -2.53094985077663
N         3.03859444081564    3.84799519360674   -1.76093114487541
C         2.12726937321975    3.78389014662002   -0.60873051552695
C         0.63584391742110    4.04401739647197   -0.82894326383686
C         2.37568462500083    2.33677431195370   -0.15038734934785
C         3.61869213566559    2.36510486910177    0.72398744307836
C         4.68185158024212    2.88541340392809    1.27081551065163
C         1.86253475469446    2.81869092992064   -3.61508393170480
C         0.95796975828866    3.00708188915961   -4.53503816995100
C         3.11337434997580   -0.37950122600793   -0.00118103414909
C         4.34808537668922   -0.75810240867864    0.76717922378504
O         1.95601785419667   -0.58999267257659    0.39834465083037
H         3.18278478923564   -1.08299823579542   -4.64479703153154
H         3.81432811693922    0.52299950792843   -4.05727934442478
H         2.12828485314771    0.27362995262352   -4.12845307797367
H         4.13591508752320   -1.35745697350360   -2.49957057606671
H         2.36963265566345   -1.32381286058499   -2.05314561239917
H         4.92930918490396    1.40494744828510   -0.76399987817638
H         1.44126093431161    1.13948116375919   -1.73809099601989
H         3.85511604502373    2.36080457147121   -3.00703548836152
H         2.84939765142636    4.66375673289612   -2.34032518956173
H         2.42415813377121    4.41982857009216    0.23379292263872
H         0.14392712811304    3.16956965722978   -1.26739027954455
H         0.54763409897122    4.88594063054105   -1.52489276732851
H         0.18739810825228    4.23550907894502    0.15277744347644
H         1.56346571621091    1.94067730606317    0.46828988502203
H         5.44068417047440    3.12302302950420    1.98071267540459
H         0.29788184325490    3.22620522766553   -5.34252232822319
H         5.17363808033625   -0.85483041637120    0.06419883849035
H         4.18784930622050   -1.66029954662337    1.36614205029049
H         4.66118169476065    0.04176035858852    1.44399575226242
