36
 energy: -50.517334853813 gnorm: 0.304416937896 xtb: 6.4.1 (79825abcba525fcdf90b791dcacef51065a7a4e7)
C         3.30163207343807   -0.53739755442697   -3.61676566743534
C         2.83407426147801   -0.75008673964627   -2.18442674449042
C         3.32093293151331    0.39464709406208   -1.21557475411921
O         4.67596845829158    0.72993166204455   -1.55990249293335
C         2.44190852873123    1.70383800214729   -1.32840934161143
C         2.72999777239374    2.57282531870723   -2.62746674144758
N         2.93153413371782    3.91835245098647   -2.07891780218559
C         2.21433937890525    4.04409968044543   -0.80141693777517
C         0.69827745631038    4.14049387532795   -0.98245326940469
C         2.55248525371754    2.69026252556398   -0.15433487951571
C         3.98137687669847    2.70261477826031    0.36385214772026
C         4.96608809891350    2.65186448145927    1.21697475229197
C         1.62672712022771    2.58716123871152   -3.67293012871360
C         0.73539620469659    2.53439789699713   -4.62308276120030
C         3.15614685127857   -0.18420976965722    0.22722157745651
C         4.34989611113119   -0.93526141201186    0.74598147097624
O         2.04618709489408   -0.27689563791145    0.77749439687796
H         2.86050998940798   -1.32673142813654   -4.24887666788701
H         4.39301559442931   -0.55571793026431   -3.69901532002725
H         2.94220368712124    0.41080970778602   -4.00817273733095
H         3.16089563027907   -1.72061824998521   -1.78046814591524
H         1.73794967396695   -0.74611821046567   -2.13592592541540
H         4.80788809804890    1.61224614790317   -1.17330824139806
H         1.42485564678008    1.27970098384902   -1.29645142958416
H         3.69109776012579    2.21883731970667   -2.99855754645998
H         2.71119188907874    4.60438136166911   -2.79848253644259
H         2.60323246260311    4.92618447707943   -0.27883206874654
H         0.26336168845443    3.30852249661179   -1.54596783410566
H         0.50406483008380    5.09378731466621   -1.48690791908005
H         0.18765756323447    4.03779933798422   -0.01794851838188
H         1.92050503180562    2.38302443065891    0.68564112568585
H         5.96682192693553    2.82628994809810    1.54000232132256
H         0.12826576967601    2.44097887699981   -5.49396007041551
H         4.90115753237431   -1.52016597563012    0.01176590534334
H         3.96138209366414   -1.55595210102514    1.55973307817548
H         5.13398023532901   -0.25946606958224    1.09868972387146
