36
 energy: -50.513916253779 gnorm: 0.301070538527 xtb: 6.4.1 (79825abcba525fcdf90b791dcacef51065a7a4e7)
C         3.42092107370102   -0.32076613588377   -3.77323135127853
C         3.26074548185930   -0.75828085596369   -2.32465741899429
C         3.45722568078378    0.47230023478529   -1.35864147966921
O         4.79962440219107    0.95266162827970   -1.54389049633179
C         2.36850285298057    1.61254044590365   -1.47667203151197
C         2.76215904568907    2.68351630347072   -2.58289534235441
N         2.82506744957904    3.92881093869897   -1.81007589024153
C         1.99859383315020    3.83981635804656   -0.59714124813246
C         0.55169982253375    4.30372490264308   -0.77545644142562
C         2.14489161001714    2.37262376961830   -0.15910506745335
C         3.37085966940415    2.32542027845379    0.73821076894624
C         4.48970328862268    2.21616034900317    1.39874171067604
C         1.69831435880095    2.69495632483541   -3.66848688907660
C         1.02206569689274    2.98622763051620   -4.74454153839995
C         3.28944000177197   -0.27035452290515    0.00671665378789
C         4.52070012243141   -0.92904986414333    0.56200634005380
O         2.19102561179916   -0.40526322247194    0.57124031691585
H         3.58581294646039   -1.23078376825608   -4.37479560703044
H         4.38394744188993    0.19552581472103   -3.83835791910221
H         2.62165849820441    0.37650430439346   -4.01088349164231
H         4.07836764725724   -1.44070249714115   -2.04587279055732
H         2.26746262102892   -1.17364741808450   -2.11319355811452
H         5.02082767948554    1.59938285899943   -0.85240115271827
H         1.43495927151477    1.10654733941476   -1.77294458504748
H         3.67754883389732    2.44904473026348   -3.12494118345182
H         2.59198564148758    4.74759945567922   -2.36884060623879
H         2.42581974744979    4.47249079386185    0.19001021863700
H         0.02010912229871    3.56861670946597   -1.38856657274092
H         0.57566424245066    5.23285909576243   -1.35605679637199
H         0.07453364265241    4.41161579349804    0.20547181565481
H         1.25339585509340    1.92047245369370    0.28827442866010
H         5.42429296733900    2.50889214971255    1.81956166956306
H         0.28145982061748    2.73518863749010   -5.46858860764642
H         4.44948204090465   -0.99461810040795    1.64630509464792
H         5.44698540246175   -0.35071924291319    0.48505821449605
H         4.64645219870332   -1.93025467526564    0.14050223812453
