36
 energy: -50.518289567121 gnorm: 0.306798363732 xtb: 6.4.1 (79825abcba525fcdf90b791dcacef51065a7a4e7)
C         3.21059346213573   -0.54007206579649   -3.74248646767764
C         3.06759782507126   -0.75727216115495   -2.24321393056749
C         3.39929970338625    0.40082096087682   -1.22590607845077
O         4.79138766311240    0.69657800286364   -1.43015466593270
C         2.48369841274292    1.68085247022311   -1.37620567223668
C         2.80504351801170    2.66155055517893   -2.58478048507217
N         2.96502527275398    3.98680323920921   -1.97644072271847
C         2.21134291388366    3.99776975817817   -0.71389100978014
C         0.71240023077216    4.17247986100123   -0.96520150092703
C         2.45183953887192    2.59184806703055   -0.13814936711526
C         3.81343227526696    2.69193150208533    0.53001988982903
C         5.10796702022324    2.74334174948192    0.67694413065899
C         1.73631709400411    2.62853347368897   -3.66512259686159
C         0.66721197482118    2.49326562896997   -4.39912645855683
C         3.09879850405856   -0.24012016241657    0.16793195730340
C         4.20019642764474   -0.95944767811419    0.89437412438723
O         1.94428075809991   -0.37041122725278    0.60783480652835
H         3.07017228298576   -1.47376679109360   -4.31318518240997
H         4.21951372194581   -0.14949836021924   -3.90907194378914
H         2.47407580502513    0.16252953667993   -4.12377113370907
H         3.80936193594375   -1.48311970341984   -1.87598440647683
H         2.06582501318997   -1.16910192236258   -2.06798646402434
H         4.88071854822431    1.63260093518487   -1.18273231304696
H         1.47415541039958    1.25953900462186   -1.51268998233513
H         3.73931289444099    2.43799030158780   -3.09848333831667
H         2.75742131340932    4.73930827045589   -2.63034939351066
H         2.57455368560846    4.80390738593650   -0.06533382138358
H         0.30508515905442    3.22887054635627   -1.34278945130849
H         0.54933122379775    4.97201788142176   -1.69671286237569
H         0.15209769631005    4.33930041060873   -0.03795814980743
H         1.68776228998487    2.35989437506249    0.61134204218624
H         6.06135229393520    2.90991680991696    1.12365266072566
H        -0.15209630518796    2.50298545441659   -5.08059637559998
H         3.77850307620244   -1.77437969223249    1.48015183889194
H         4.50500032987961   -0.24042831681664    1.66151002575824
H         5.00703467372994   -1.18357209248220    0.19104585027075
