36
 energy: -50.518588008303 gnorm: 0.302284768754 xtb: 6.4.1 (79825abcba525fcdf90b791dcacef51065a7a4e7)
C         3.51839807016036   -0.41790812778696   -3.80344503004342
C         3.17575372573469   -0.75385022767169   -2.35942995801363
C         3.45051170012601    0.41150225443423   -1.33347542446895
O         4.82417029434999    0.80444742912364   -1.49395820656145
C         2.38699813362661    1.57691393652652   -1.43422664456306
C         2.58699308411844    2.64440206510308   -2.59446608598423
N         2.86871714374476    3.91510229734188   -1.91776930075523
C         2.14492271948120    3.92643149809173   -0.63785430192346
C         0.65654618609286    4.24519346509160   -0.79159381587928
C         2.35360204315055    2.47154204738699   -0.18433200883983
C         3.70453877670837    2.50255839662571    0.51166335833302
C         4.49730045580369    2.46128755064062    1.54601126268823
C         1.44171534912843    2.61569383242361   -3.59342558008114
C         0.77726599052820    2.92556022653624   -4.67163458206433
C         3.21325030623198   -0.32540598407790    0.02467192003112
C         4.47491480726405   -0.81950500635992    0.67451536609446
O         2.06211533194340   -0.59157533241423    0.40865581496916
H         3.65806911397459   -1.38818807113904   -4.30965625339215
H         4.51974683651507    0.02270553088981   -3.76631171875543
H         2.86197277391815    0.28328846444385   -4.31228138285681
H         3.77637212226318   -1.57159850089737   -1.93226316408876
H         2.12665737885551   -1.03169788258943   -2.19801522060431
H         5.03173656064177    1.57569157269594   -0.93948957419885
H         1.39975109736685    1.09257862701610   -1.51215390427990
H         3.45803953901059    2.51419097673089   -3.23559962147153
H         2.72307573005038    4.76011465762795   -2.46704377935028
H         2.60327682364356    4.63229797170411    0.06504710917393
H         0.16478435649426    3.48098347858294   -1.40235576822984
H         0.54650693362752    5.22501869319696   -1.26991933395366
H         0.17108601072276    4.22739429032312    0.19103524070605
H         1.55807613800768    2.13040312128434    0.48657535347793
H         5.41983845261592    2.59380976929864    2.06331267100098
H         0.11861992217905    3.09350400907186   -5.49245247040321
H         5.29027832797614   -0.70998295603084   -0.03840976728185
H         4.31505091665118   -1.82703378235964    1.07165645720659
H         4.70168293589143   -0.22078126680640    1.56107978211384
