36
 energy: -50.521265572715 gnorm: 0.310217152591 xtb: 6.4.1 (79825abcba525fcdf90b791dcacef51065a7a4e7)
C         3.17486269092038   -0.35851198485629   -3.65876069095777
C         3.12199730231689   -0.74709230502430   -2.18850480366874
C         3.45894053129050    0.45009249410568   -1.21930981873049
O         4.79854564684735    0.87000776274073   -1.52951604487522
C         2.41322906308675    1.62609880861996   -1.37061423961746
C         2.77077493732004    2.65248703944635   -2.53008508358976
N         2.84757083444659    3.97416525336837   -1.89823447459257
C         1.99446908212447    3.93885376036350   -0.70108801949583
C         0.52570604662437    4.21083012550701   -1.03165380536905
C         2.24612409863856    2.52974362802477   -0.13805051249152
C         3.53394701391476    2.53067475197134    0.66936071164773
C         4.73590533763413    2.51143862045992    1.17431228906062
C         1.80631188767745    2.69997496123653   -3.70395103874294
C         1.03888439034454    2.91000652837232   -4.73690146341804
C         3.32652678534150   -0.29842553901479    0.14673494990320
C         4.54016532865374   -1.10449465608762    0.51492205220133
O         2.25327712222310   -0.38948000013242    0.76580339737290
H         3.03306923218842   -1.25598894435480   -4.28456473115306
H         4.10964001673145    0.10343513134669   -3.99194959281199
H         2.31621096736174    0.28009221129833   -3.84951490562522
H         3.94434899358426   -1.44172953724444   -1.95797717416012
H         2.15913895223782   -1.17989924549682   -1.88944103110565
H         5.00831591673973    1.53972046934866   -0.85659845584559
H         1.45238385641081    1.18065363520032   -1.67666188094307
H         3.72462147077461    2.31629092964896   -2.93490361722394
H         2.44272196326203    4.67994377042814   -2.51055290182261
H         2.40179967242481    4.73167797172908   -0.06240349510857
H         0.08722276885371    3.35067382652386   -1.54812289416537
H         0.35827838176788    5.11360886357193   -1.62991791247999
H        -0.06920533381883    4.31260672585754   -0.11662909047790
H         1.54027833072142    2.17420498720867    0.62005762798124
H         5.65548884209731    2.50533704809879    1.71335605314963
H         0.25788387184714    2.92569127702740   -5.46185246354658
H         4.25088736655302   -2.12425374999190    0.76288303866247
H         4.92872625128281   -0.80677300130275    1.49409209440189
H         5.33851561188183   -1.06201095721922   -0.23121622357385
