36
 energy: -50.519940555279 gnorm: 0.301555589019 xtb: 6.4.1 (79825abcba525fcdf90b791dcacef51065a7a4e7)
C         3.35511005910018   -0.12003068023559   -3.89692742412621
C         3.18074112052004   -0.63229149101717   -2.47473682251355
C         3.44899334599136    0.39504608892360   -1.30908708750365
O         4.84600438913245    0.73218310151839   -1.35148231810320
C         2.46565805094944    1.62797354208897   -1.42016323794376
C         2.85343550005551    2.69457165539031   -2.53267463142948
N         2.85345166208862    3.99289272153643   -1.84979212572390
C         1.97610793623290    3.87164599048720   -0.67601346460089
C         0.45655843083106    3.83741593655975   -0.85010346471174
C         2.40961812300864    2.49269287293264   -0.15019027257817
C         3.75551188663587    2.58243533814145    0.55046499365772
C         4.82276497512713    2.71234516189741    1.28812626416969
C         1.86348867427311    2.77729157692717   -3.68313892280283
C         0.85719601822832    3.07154015372298   -4.45827612970711
C         3.15906333976142   -0.40836046532459    0.00025222370439
C         4.30280947579675   -0.94537240746486    0.81369589929700
O         2.00850907491183   -0.73501792819867    0.33628983292385
H         3.31759336541545   -0.98951401231844   -4.57500721685827
H         4.41348343800991    0.15722115408771   -3.93150838767983
H         2.67971496767652    0.68865501091785   -4.16404947377930
H         3.92353528081378   -1.41798996579664   -2.26770805804709
H         2.17630616535689   -1.03505565983315   -2.29377100343271
H         4.97589422094304    1.54038658580551   -0.82681812850829
H         1.48598612379132    1.17108109713586   -1.63650154653754
H         3.84017883448926    2.39908316952083   -2.88729164563232
H         2.51527702657823    4.67464511466354   -2.52640971961009
H         2.28712218990702    4.68666745700199   -0.01162164075473
H         0.16559554137715    3.04241121475467   -1.54449877702949
H         0.03418973006141    4.74622683334021   -1.29353197819969
H        -0.05638934847440    3.63489761684641    0.09721863369106
H         1.66441718561897    2.17038019645829    0.58475462833150
H         5.63851655493758    2.83760740802954    1.96273572808379
H         0.25257190886450    3.02994314969851   -5.33489529881931
H         3.91369308900312   -1.17213265578883    1.80477774485268
H         5.15065315995378   -0.25579238038535    0.87719562101121
H         4.67237713054312   -1.91440773624398    0.46688090121156
