36
 energy: -50.515141187967 gnorm: 0.308577958495 xtb: 6.4.1 (79825abcba525fcdf90b791dcacef51065a7a4e7)
C         3.70885404765873   -0.29896073116903   -3.85325595210919
C         3.24308370238095   -0.68961666616905   -2.45830516079023
C         3.41399354523635    0.41773765750504   -1.34894619182070
O         4.76319188117907    0.90831756575769   -1.42700911814219
C         2.36485999037303    1.60038469271946   -1.35676711030455
C         2.80310816090987    2.62597269847615   -2.48892978274078
N         2.92634931494017    3.87083570545444   -1.72270929551112
C         1.97187444490482    3.81522996416174   -0.60553658784121
C         0.51701763837589    4.11272871094723   -0.97349839430104
C         2.34975703074099    2.42730539476939   -0.06074032642420
C         3.69028971971124    2.45598044975542    0.65518663940881
C         4.83432498320520    2.50365578890878    1.27885343087174
C         1.73419824800095    2.75229991033232   -3.56218578294622
C         0.67442239894628    3.03976057055140   -4.26524079376255
C         3.11033309329383   -0.39481335146144   -0.04839162164827
C         4.26551970445229   -0.79231692651585    0.82668694726873
O         1.93050928501569   -0.77555550993268    0.03193714506430
H         3.67292969375379   -1.20262910598646   -4.48515300294851
H         4.74723899738058    0.04562558139884   -3.81810483213021
H         3.10339381585236    0.52275348853444   -4.22700576057917
H         3.88190330286738   -1.53897205050573   -2.17119695806180
H         2.20811899136888   -1.05087563795308   -2.50517932737478
H         4.83797370046301    1.86842366183722   -1.29306615462806
H         1.35966727243156    1.22931922445280   -1.61601235812866
H         3.78153378113839    2.42647776836568   -2.92437686850396
H         2.86691238197954    4.71810783335126   -2.28445387239069
H         2.30851019917520    4.52397842768828    0.16046494241567
H         0.17166465121581    3.33988875238080   -1.66799567545469
H         0.47444478292210    5.09790788387767   -1.45158935124312
H        -0.06039056293908    4.10402056805711   -0.04179447605553
H         1.56999747799532    2.01871227225804    0.59070469422184
H         5.83757533406393    2.53397998477654    1.63775228663139
H        -0.22509125147988    3.15075007658622   -4.82588177911673
H         3.85020651567918   -1.14763230354583    1.76814376682118
H         4.99694524448472    0.02184010140968    0.80309106599038
H         4.73200926403867   -1.63663677159341    0.31151526134732
