36
 energy: -50.514696313481 gnorm: 0.295632666125 xtb: 6.4.1 (79825abcba525fcdf90b791dcacef51065a7a4e7)
C         2.99180128612244   -0.81351879226864   -3.59288207978660
C         2.93813012611887   -0.88679040630024   -2.07393756498049
C         3.33675552176527    0.37196100963418   -1.21210015740548
O         4.70380889520117    0.63503628944371   -1.57134248520840
C         2.38865418431411    1.61601007485511   -1.44197424781084
C         2.58916393590217    2.43278147300233   -2.79044181454906
N         3.18895139336607    3.67780959228793   -2.29837873356776
C         2.51706036499702    4.02789797049237   -1.03814474757146
C         1.04622562951786    4.43158504088962   -1.15727348724306
C         2.63340437095774    2.66144591490730   -0.34157769082898
C         3.91831030337369    2.49460960455971    0.45314486182024
C         5.01347980699320    2.73729904951893    1.11779174301976
C         1.35444753659210    2.56426169051822   -3.66713658031444
C         0.12722767296314    2.40425410144915   -4.07747031729938
C         3.16322412427412   -0.00108780573729    0.29608165000583
C         4.38775785674766   -0.55456915722080    0.96869089522052
O         2.09151934868620    0.05567857452427    0.92188348468922
H         2.98857112379867   -1.85267475465788   -3.96348351249879
H         3.96499877895228   -0.38707168135364   -3.85603247458311
H         2.18219746402558   -0.26037692029684   -4.06198866067486
H         3.71550406039444   -1.59854512374535   -1.75609931068509
H         1.94885419873467   -1.19380619914302   -1.71209281642719
H         4.89421550425929    1.54678194134035   -1.29241248839772
H         1.35724509086460    1.23128865811028   -1.38285769329174
H         3.38928499191235    1.98201136690554   -3.37639545818541
H         3.00115115612634    4.35099601344204   -3.03899394423611
H         3.05957281619382    4.81725950783754   -0.50429556296875
H         0.57816161750946    3.67640379678278   -1.79719077237675
H         0.99180510911717    5.36759773117218   -1.72461823741647
H         0.49994106170293    4.52211764566131   -0.21126858754519
H         1.76277011210507    2.60610921830241    0.32045535194023
H         5.93709239885721    2.79485879779263    1.64681524126183
H        -0.65505022442548    2.23245076057323   -4.78052556588282
H         4.29940536403847   -0.51790896285732    2.05309158814649
H         5.23383315554270    0.03558676505226    0.60226993288739
H         4.46867200087696   -1.61598754509973    0.71822278253622
