36
 energy: -50.515202157352 gnorm: 0.308006763030 xtb: 6.4.1 (79825abcba525fcdf90b791dcacef51065a7a4e7)
C         3.39095051087302   -0.66132717435423   -3.68258111931964
C         2.92137672165248   -0.82725427889777   -2.24473187921040
C         3.37412865668410    0.37767610566043   -1.33408401313134
O         4.76193549323204    0.65535401837310   -1.58703808302296
C         2.48090057763858    1.67905695583266   -1.42323468106341
C         2.77129283724050    2.50403688335080   -2.75017287579356
N         2.82183399722587    3.89100402071449   -2.27505828569411
C         2.31356568847978    4.03213943978230   -0.90249380828469
C         0.81338158140202    4.33022255704283   -0.86926995707316
C         2.65154541989604    2.67425850797317   -0.26385314495262
C         4.01140085462904    2.75418422421072    0.41054038475178
C         4.96344443552143    2.74032375347304    1.30131016316967
C         1.53418543841996    2.37077055765310   -3.62321972453223
C         0.32002448895188    2.53528327852634   -4.06908249205991
C         3.10910320902781   -0.26855733621211    0.06449913864322
C         4.28576106562353   -0.75395891413270    0.86330404973485
O         1.94967526520981   -0.20456693666713    0.50612520660834
H         3.56001548044036   -1.55791969500997   -4.30285513831806
H         4.33692854169076   -0.11804467859105   -3.59209173612090
H         2.68346578889628   -0.03008747867223   -4.21407626108142
H         3.37110983279051   -1.71354968030460   -1.77129047861210
H         1.84377292204478   -1.03264417184572   -2.26576099072458
H         5.05892344966014    1.29120919149741   -0.91411675933146
H         1.45099556314812    1.28683751944003   -1.39549212038017
H         3.67282075713877    2.25021789348081   -3.30654722082339
H         2.59196575300865    4.59708378974434   -2.97188805202500
H         2.90057395843727    4.83421841283313   -0.43935563660914
H         0.20501662718053    3.43266676673658   -1.02146209111382
H         0.50794640085554    5.07900127530515   -1.60886524764520
H         0.50189889685296    4.77944675809164    0.08084814415399
H         2.02335187281258    2.39320300647453    0.58804742889874
H         5.78174038189822    2.68430778674809    1.98211348599914
H        -0.55601279469375    2.26111066922635   -4.61051564965403
H         3.97287564625560   -1.56585510347826    1.51752289154303
H         4.60961040884801    0.09874158759856    1.46862645055450
H         5.11391653641011   -1.02186146302091    0.20127904179716
