36
 energy: -50.514831484301 gnorm: 0.307595601560 xtb: 6.4.1 (79825abcba525fcdf90b791dcacef51065a7a4e7)
C         3.27987787387259   -0.20052731999017   -3.82555121969590
C         3.18616695362883   -0.68818877891568   -2.38720274485307
C         3.42741731465009    0.41776423257560   -1.28957472928576
O         4.76152289550592    0.84019497791105   -1.61944309653267
C         2.36719889326853    1.58088556384132   -1.43951464308024
C         2.87309259360842    2.65750902101091   -2.49338274926900
N         2.95825410904668    3.88097774500798   -1.68849897675027
C         1.93915669152062    3.85890010807399   -0.62871496372521
C         0.49252890401303    4.05809039080057   -1.08489585432914
C         2.14418379394756    2.40749770114387   -0.16253069896749
C         3.31113584831457    2.22093742475663    0.79340850892437
C         4.25299037557126    2.64597113087010    1.58858542912646
C         1.88291938580759    2.73521939429008   -3.64400148306514
C         0.95584798829801    3.06650212183242   -4.49889047014244
C         3.38968729561036   -0.36564540969318    0.06273317643275
C         4.70507386738215   -0.95247602152459    0.49123713530928
O         2.33752226818341   -0.51651002718013    0.70584287763618
H         3.31691159286916   -1.06705580069990   -4.50742940983143
H         4.15953810496457    0.43504589373813   -3.96860084775510
H         2.40934486992978    0.40296564485912   -4.06938271483156
H         3.83338680188212   -1.54796825470630   -2.15522886270322
H         2.19169245649987   -1.14148524700385   -2.29024932710620
H         4.94780140898639    1.59111908009112   -1.03058822338186
H         1.39009746604840    1.19546361636892   -1.77422762499257
H         3.87360221777311    2.42969932022790   -2.85918638467588
H         3.10570400855158    4.77433805642753   -2.15446640595970
H         2.20568841405108    4.58824136663157    0.14551273035676
H         0.32133496702167    3.17719456308065   -1.71226491766480
H         0.42139038699378    4.95056538360978   -1.71686825372606
H        -0.10470420279988    4.19024239769285   -0.17528235483319
H         1.28540062043735    1.97201710489077    0.35919914992265
H         5.16025572162601    2.63164761827240    2.14796335303102
H         0.17180391838150    3.18098501212358   -5.21158278377807
H         5.38723524429357   -0.15924284217097    0.79208921038406
H         5.19466162295475   -1.30027584507008   -0.42403924614430
H         4.53571199306419   -1.67855208890020    1.29124992381852
