36
 energy: -50.518726263004 gnorm: 0.305324323892 xtb: 6.4.1 (79825abcba525fcdf90b791dcacef51065a7a4e7)
C         3.42958895808197   -0.24153629061597   -3.77389069975508
C         2.94272974211356   -0.66863072596159   -2.39693745990779
C         3.34710851515697    0.39822265330034   -1.30862558584935
O         4.70584142018636    0.74996457554500   -1.62042856350104
C         2.39047233057287    1.65328463306841   -1.40382515589558
C         2.83100212560965    2.72649818103044   -2.49002524361962
N         2.86127781336005    3.98939512767389   -1.74427679219305
C         1.96521775286660    3.88517343260425   -0.58306909435510
C         0.46914433524976    3.94402623287051   -0.89741030941846
C         2.27935281875902    2.45926083116378   -0.09930755844418
C         3.61155795838789    2.33992172363862    0.62276529221440
C         4.77415064065817    2.29033275722950    1.21095665116561
C         1.97592594435862    2.71777235391860   -3.74667710626196
C         1.05346903452523    2.94924971602223   -4.63860549359033
C         3.22412785978006   -0.25051841757230    0.10837889726497
C         4.48534085691555   -0.92357103682335    0.57159548426699
O         2.15943139359580   -0.21046577501929    0.74729884707994
H         3.40745301728027   -1.11987509108037   -4.44114771497210
H         4.43474467133993    0.19173097362108   -3.76123767384579
H         2.73665386837948    0.50981061268732   -4.14376103123674
H         3.35651773869670   -1.64451375893025   -2.09968678880066
H         1.85015956947159   -0.76911846788703   -2.38987965512405
H         4.87387135333817    1.43348242081528   -0.94967819656435
H         1.39913662126931    1.26211964413042   -1.68587748977985
H         3.87403876476968    2.58642261232345   -2.77141902430884
H         2.79044828084562    4.89459466504028   -2.20531554603300
H         2.21620668566055    4.61768251416113    0.19335949102202
H         0.41193873532891    3.43177845882721   -1.86343644816941
H         0.08712053078976    4.96476397594588   -1.01192530767286
H        -0.15028238891607    3.46523037067151   -0.13019892593035
H         1.53381798541916    2.03632616214081    0.58235070319104
H         5.74147553053358    2.36635408816452    1.65225306202989
H         0.38934725647069    2.94680574122353   -5.47209097780373
H         4.69561597506717   -1.80353096170658   -0.03382164453564
H         4.30893081138276   -1.16312010692243    1.62510746053402
H         5.40702850003574   -0.33556678301248    0.54643110420317
