36
 energy: -50.515765675608 gnorm: 0.309761272155 xtb: 6.4.1 (79825abcba525fcdf90b791dcacef51065a7a4e7)
C         3.38440988685283   -0.50141946593384   -3.88495653795051
C         3.05172789355050   -0.84206388330530   -2.43971405090356
C         3.37245428468752    0.29212277433351   -1.39239543923927
O         4.72692078602090    0.76148810672871   -1.50291822248215
C         2.40543564308922    1.54208995801079   -1.43544590572874
C         2.80879293624031    2.62281540410771   -2.52861556445098
N         2.93781245929268    3.90341344280909   -1.82477698786006
C         2.07897315631546    3.77810096009067   -0.63781406914879
C         0.58242454085932    3.98034855163844   -0.88265666136553
C         2.29159069209872    2.34261412544465   -0.12780996776138
C         3.57212197451831    2.41916829201875    0.68753087760937
C         4.52416148577756    2.82705184239166    1.47955468066748
C         1.77566948534449    2.84762536448118   -3.62064203743036
C         1.02730444150735    3.45651096640709   -4.49771268192902
C         3.20718328644779   -0.40247472006810   -0.00167232234955
C         4.51181921727351   -0.67547331339073    0.69231942123789
O         2.08421115135313   -0.69778043577319    0.44006246299769
H         2.96459807635758   -1.32986742264027   -4.48046724261309
H         4.46595721476565   -0.40149527764410   -4.02093140044421
H         2.96309860029778    0.40127365183628   -4.31984411022593
H         3.74942772693868   -1.60482343760781   -2.06111270894678
H         2.00548713738936   -1.16745645203327   -2.38177325665099
H         4.77432390534804    1.62844480453687   -1.06533876237302
H         1.42322599237441    1.09250979441839   -1.65556394630481
H         3.74523838391421    2.34520659651670   -3.01103898467286
H         2.83152668857321    4.70255828547878   -2.44689484715331
H         2.43855013795789    4.54506565643509    0.05851624923467
H         0.08528343144334    3.06870611008590   -1.22998293408201
H         0.41606059024358    4.82242350021664   -1.56397467376994
H         0.14835264099166    4.24187016993037    0.08931879452476
H         1.52816187913585    2.00327598039983    0.58027194292829
H         5.43047334900723    2.89083196775177    2.03702228534121
H         0.44969331621310    3.76512576300783   -5.33847667203818
H         4.39390669644413   -1.51761624972714    1.37200089961593
H         4.68932681577420    0.14283397788619    1.39748321723452
H         5.36594356010499   -0.77700286802175    0.01700192323148
