36
 energy: -50.521863141299 gnorm: 0.311485825467 xtb: 6.4.1 (79825abcba525fcdf90b791dcacef51065a7a4e7)
C         3.31455894079151   -0.43085709742080   -3.65828682734738
C         3.05077235090493   -0.82798597209770   -2.21324458813487
C         3.36324901731643    0.38041161131236   -1.24978484390457
O         4.74364248646359    0.72401468482611   -1.45846972321278
C         2.37729396964479    1.61071714918573   -1.36656342577197
C         2.73780215861250    2.54775703180469   -2.59850277048512
N         2.82129989430467    3.89366596001709   -2.02098796358912
C         2.12324750462558    3.96917539477758   -0.72900874849176
C         0.63568536056820    4.32619050629264   -0.74345810249616
C         2.40013077595868    2.56626113170330   -0.16235186152469
C         3.76643204582042    2.64174567765942    0.49940674819463
C         4.96957838730446    2.80298279743808    0.97531781482700
C         1.68627584379399    2.48670600618242   -3.69439076521218
C         0.90937618383807    2.58642767035656   -4.73675695175061
C         3.14292438200541   -0.31126214574849    0.13474952425176
C         4.34645190727447   -0.99265120540418    0.72250637807206
O         1.99831909715346   -0.28632772532626    0.61709640516313
H         3.17087940403839   -1.30266500508588   -4.31897445066396
H         4.36355278415895   -0.13640606081975   -3.76378154288545
H         2.67652178809699    0.39480635783236   -3.96271041318859
H         3.74629460811948   -1.56767454167533   -1.78776159169981
H         2.01758494165970   -1.15920587758051   -2.04992180109463
H         4.86288254584750    1.63390813308179   -1.13720274074564
H         1.36385033184588    1.17975327549533   -1.41668508604128
H         3.73777371094412    2.35036475370172   -2.98297933576847
H         2.57872476729410    4.63465698107349   -2.67600657189308
H         2.68478827043439    4.67884549660495   -0.10977804536022
H         0.17266345359778    3.70185719557669   -1.51462305832555
H         0.47655338767020    5.37830611939379   -1.00554808834021
H         0.16477766237117    4.09910646218882    0.21998729068008
H         1.67900582496235    2.19335211290267    0.57267981566116
H         5.88922228629098    2.86126332473148    1.51113278143233
H         0.35434185702277    2.63426092455450   -5.64527807473708
H         4.63959277688275   -0.34663735732251    1.54822396967663
H         5.13297148894820   -0.81180578284337   -0.01713788160463
H         4.15156835981973   -2.03086658832635    1.00538371279032
