36
 energy: -50.516523436918 gnorm: 0.306786665669 xtb: 6.4.1 (79825abcba525fcdf90b791dcacef51065a7a4e7)
C         2.74228212891232   -0.50433934163025   -3.68495998159013
C         3.00789340019194   -0.85926783665098   -2.22930954710768
C         3.41219560441455    0.34398943326171   -1.29398461761849
O         4.81438950295618    0.58846931253184   -1.49691425465537
C         2.48896621769829    1.60605809727474   -1.52685044559028
C         2.87801153907239    2.61207561635754   -2.69400808339116
N         3.06981702495017    3.91318579538688   -2.04417037791808
C         2.26603531286427    3.95162163818172   -0.81346051480181
C         0.77105930853086    4.19121371339820   -1.03289640158205
C         2.48794924524156    2.52172805222682   -0.29183674763437
C         3.71258428197679    2.45094534513702    0.60574912196526
C         4.65694487033815    2.84463872876470    1.41398083252820
C         1.73236428823729    2.69977572871755   -3.68909924913905
C         0.71090294307813    2.63725014393422   -4.49702998197662
C         3.22035756853891   -0.18982819940942    0.16276787581355
C         4.47058757926606   -0.76401953200286    0.76729818933113
O         2.17172404632248   -0.21967133727542    0.82825912611500
H         2.64993809745069   -1.46065705310932   -4.22729750277058
H         3.67231890607474   -0.10890911005795   -4.10553715118340
H         1.88916349926303    0.16286270218817   -3.77723838240129
H         3.88561063423241   -1.52310982807287   -2.20011310853318
H         2.14834588222414   -1.41076621433456   -1.82820509675150
H         5.10837035680582    1.33698862350897   -0.95044298402928
H         1.48402714391359    1.19091285983755   -1.70867988598343
H         3.73642573564751    2.17777009613675   -3.20511751335296
H         2.90109551435118    4.69929917273148   -2.66908523593517
H         2.65906053009715    4.78454140232542   -0.21832843420095
H         0.30971385998531    3.35401902052244   -1.56688346521586
H         0.47462898948149    5.09529038887546   -1.57671240137785
H         0.37233633772558    4.20883017177343   -0.01198606820360
H         1.63055174932212    2.23307310349206    0.32533565083749
H         5.50041569379595    3.06326769647642    2.02798210043080
H         0.06081373541413    2.82231513311584   -5.32098189192306
H         5.05603636255330   -1.33720875071034    0.05051451451859
H         4.15219853238776   -1.30092102090806    1.66660734220381
H         5.12334732983139    0.04564617035137    1.10528713150327
