36
 energy: -50.514212430630 gnorm: 0.301454012249 xtb: 6.4.1 (79825abcba525fcdf90b791dcacef51065a7a4e7)
C         3.17700289006364   -0.21225919060090   -3.89464184778709
C         3.17142319180177   -0.69031576638518   -2.45004067985833
C         3.46018284014683    0.37999467274774   -1.32880276394369
O         4.81819880501313    0.84331377468406   -1.41950348125577
C         2.43059590075658    1.57400708898418   -1.44577024151969
C         2.90654297070008    2.69516601366261   -2.46663336345424
N         2.90639944923200    3.93534671370531   -1.68310424091919
C         1.98070295357632    3.81174826735206   -0.54732321715436
C         0.52170627361007    4.10007224501217   -0.90608174900137
C         2.19740123464093    2.34540246352603   -0.13646480002237
C         3.40112170480614    2.24343887081052    0.78606541633892
C         4.52477112074214    2.50092415568866    1.39529706346238
C         1.99787885680749    2.69945004365654   -3.68512280553819
C         1.18164921530528    3.01526656364550   -4.65159778760920
C         3.24297923045209   -0.29084244435596    0.06643595080076
C         4.53256213880898   -0.65638913542651    0.74583214635933
O         2.09042052154944   -0.56267462970264    0.44209159468051
H         2.72101115495947   -0.98693542871082   -4.53428958759216
H         4.18739186029430   -0.08891969886789   -4.29728328066699
H         2.63552881314683    0.72625466517989   -3.98114520594063
H         3.93548955644255   -1.45651147784630   -2.24737622457183
H         2.18828465273377   -1.12013686764712   -2.22080365858692
H         5.16722042582003    0.55026228728840   -2.27836405448688
H         1.46536274135705    1.17506353596236   -1.79858611155108
H         3.94130741680618    2.56975658837088   -2.78327839171659
H         2.63207124711738    4.79740761553678   -2.15060269657876
H         2.32057390356574    4.54760711018019    0.19119275740682
H         0.12260209787320    3.60431940621432   -1.79704849038547
H         0.36983662123790    5.16632214827100   -1.10858647090708
H        -0.09395698245307    3.78886518857876   -0.05422661142158
H         1.34513865037905    1.97602868112058    0.44367776246012
H         5.38058149866270    2.69991907129115    1.99881079506961
H         0.36140959778147    2.76408108653174   -5.28395417972432
H         5.31301319480641    0.08010407782634    0.56266859279430
H         4.77954915622469   -1.67593502502251    0.43291788606080
H         4.41857337043343   -0.73068306771609    1.83090234415807
