36
 energy: -50.518649818154 gnorm: 0.301819607277 xtb: 6.4.1 (79825abcba525fcdf90b791dcacef51065a7a4e7)
C         2.96898311072552   -0.64765569458220   -3.69792537756337
C         2.73589786806800   -0.73650565562470   -2.19685285651201
C         3.33424535745721    0.38911273976348   -1.26890643551170
O         4.72211207157710    0.61324111632110   -1.57005594795437
C         2.44293859937780    1.69050411159743   -1.37543851674091
C         2.89120384994403    2.71406495588756   -2.50551194945473
N         2.86146921270410    4.05663445869487   -1.91509761806090
C         2.05472232004022    3.99047659360521   -0.68750985669323
C         0.54117634015166    4.03197201450164   -0.90652222523005
C         2.49311705490032    2.61758833087313   -0.14999642089308
C         3.88948140031616    2.52361056263386    0.44307724910758
C         5.04678603128749    2.89157455144375    0.91773334615792
C         1.89299153086177    2.54644292527974   -3.63947862638042
C         1.27438102092864    2.64470258391210   -4.78303050945525
C         3.22857254016021   -0.20389827640576    0.17368225037728
C         4.49052311063838   -0.75709505289790    0.77341697220036
O         2.11290421309126   -0.31784026246939    0.70819407448103
H         2.67431682303145   -1.65391042919594   -4.04118061727294
H         3.96756690419070   -0.34734260337279   -4.03088344923937
H         2.21355487249067   -0.02548000252646   -4.17090619077482
H         3.14010121571192   -1.67805688229923   -1.79432695430790
H         1.66594892237609   -0.77207082721688   -1.95643332412604
H         4.97371069636480    1.42596133550764   -1.09939605922177
H         1.40327694400630    1.36742464728086   -1.54873988967779
H         3.85759623671946    2.41932301119788   -2.91287176341819
H         2.57310596816072    4.74959245687680   -2.60329499170690
H         2.42593465194045    4.75845835510573    0.00155601151270
H         0.17847812941788    3.40024020559242   -1.72398273650953
H         0.16388274705729    5.02723792337301   -1.16739906708476
H         0.02594536249005    3.76789699464056    0.02425684402765
H         1.83615739877642    2.24787487816100    0.64440265504783
H         5.96618733424237    2.71141495522830    1.42614557074773
H         0.43857455534614    2.62794928792597   -5.44402118668403
H         5.29764868520204   -0.82510126824857    0.04609417391084
H         4.35935197061199   -1.75433117627535    1.20551185165567
H         4.80438406184075   -0.08213954247049    1.57455162128972
