36
 energy: -50.516137835106 gnorm: 0.311966840252 xtb: 6.4.1 (79825abcba525fcdf90b791dcacef51065a7a4e7)
C         3.17323783695877   -0.66568700733742   -3.63043938310279
C         2.73499837248346   -0.75799277590237   -2.17618094945451
C         3.31833695625575    0.37059104006977   -1.24229887424558
O         4.69172485519207    0.64557739108577   -1.56677810044107
C         2.44425007523366    1.67747056202362   -1.40793211075631
C         2.77063642042731    2.66014858315850   -2.61354412456115
N         3.00199382117655    3.94027442671710   -1.93551930938364
C         2.18219036892084    3.97384419255532   -0.71527978477703
C         0.67609175439253    4.15829901454924   -0.91060800889138
C         2.54320480402864    2.58211173005822   -0.16876155553095
C         3.93385236288776    2.76045636970114    0.41834501733489
C         5.10601523116114    3.01204684295596    0.93097192986473
C         1.72002559803132    2.50419300532938   -3.70088035014380
C         0.89450776785808    2.54554743016205   -4.70927258553674
C         3.11546907561531   -0.25189492404080    0.17729500372403
C         4.35451167033650   -0.83282654757968    0.79819722065883
O         2.02598686088400   -0.36042420825411    0.76436517335397
H         2.85902169397090   -1.55934330694920   -4.19599009247570
H         4.24246010634824   -0.43191181199546   -3.64864727045084
H         2.68085625069201    0.22352224721948   -4.01560499118063
H         3.11238773980959   -1.73435899466246   -1.83528149824461
H         1.64377500626951   -0.86135993504761   -2.12715063415079
H         4.88503994194679    1.45712782308775   -1.06742659171905
H         1.39945622571652    1.36335723668638   -1.56619990624559
H         3.73139036485847    2.39324485653868   -3.05222774940670
H         2.69451446405278    4.67252407545734   -2.57287844745457
H         2.54172647848627    4.75957289056059   -0.04017197289883
H         0.25756125547624    3.36807058137360   -1.54246875878761
H         0.59341525539946    5.13901380920586   -1.39260853338084
H         0.07411241797132    4.21139068749787    0.00391394612643
H         1.91083989231691    2.28699801728596    0.67526239557942
H         6.09740737967753    3.08308641790187    1.31611372222480
H         0.13392254419855    2.49444473671318   -5.45402783781870
H         5.26674420842788   -0.24140474846707    0.85411718866113
H         4.62187362971367   -1.74448519809828    0.25433342070972
H         4.15027602422509   -1.19045342527109    1.81125259051402
