36
 energy: -50.520987172472 gnorm: 0.300198914478 xtb: 6.4.1 (79825abcba525fcdf90b791dcacef51065a7a4e7)
C         2.92736246890087   -0.44635751760447   -3.65598453258785
C         3.20813448304665   -0.82335497210302   -2.20875207984357
C         3.42102012250586    0.40889215489560   -1.24835226934896
O         4.78857163214139    0.82169764664424   -1.41111927578522
C         2.41651320460232    1.60442714532171   -1.49545204115974
C         2.83158109540662    2.56841528527090   -2.68882123320674
N         3.12762308567871    3.85482797141573   -2.04892464195899
C         2.23580681788418    3.96101358313934   -0.88463194241127
C         0.82064880351726    4.42311153199016   -1.23719825441120
C         2.38760543448031    2.55250110911013   -0.28548036062033
C         3.66268587313150    2.48377223395263    0.53904846855437
C         4.67935525968654    2.51329894043600    1.35486795971753
C         1.66008642451055    2.51340084031106   -3.65576437522495
C         0.51010497817642    2.34235323876333   -4.24595944562367
C         3.23787024107836   -0.13066041547259    0.20740530086820
C         4.38725749812103   -0.90727040928978    0.78534433400665
O         2.12322863241717   -0.05338773743645    0.75054848238550
H         2.76061255790915   -1.31811283741509   -4.31129980010296
H         3.82029518375089    0.06188822472329   -4.03357698895485
H         2.04475933721623    0.17465778645447   -3.78574189055391
H         4.08758474896696   -1.48488982330752   -2.23816351971089
H         2.34426033565501   -1.39720702426050   -1.85060062569452
H         5.01177687844191    1.52999741669092   -0.78356241933108
H         1.42527508958085    1.17453212602475   -1.71442085741513
H         3.75033120498061    2.26063531743634   -3.18671560794842
H         3.08346998871546    4.66100320418401   -2.66948227153081
H         2.66313126041666    4.70728587714628   -0.20428068029450
H         0.39939911542669    3.80106013623991   -2.03373922747332
H         0.79417845911424    5.46407556812877   -1.57874562890990
H         0.23967807272596    4.33240461527070   -0.31210716665817
H         1.59356125051636    2.24690558379946    0.40405508219752
H         5.64978156756598    2.47214696955584    1.79397900635257
H        -0.33899802018395    2.56989069188615   -4.84846471168221
H         4.70444441500933   -1.80859179443432    0.26372453584060
H         4.16176339790530   -1.16043977053074    1.82623310400749
H         5.23068471233138   -0.21145556513467    0.80438659061125
