36
 energy: -50.513614000697 gnorm: 0.285996899717 xtb: 6.4.1 (79825abcba525fcdf90b791dcacef51065a7a4e7)
C         2.80971872489535   -0.77012678751115   -3.47176465230217
C         2.85104039896245   -0.97433879909799   -1.96443862569176
C         3.40912567881060    0.30937561014571   -1.23867062421089
O         4.78203616844646    0.53830134759456   -1.59895991200289
C         2.52851633156532    1.60925972634336   -1.42367000530850
C         2.77139754890661    2.50798873200865   -2.71168373466695
N         2.80190100707045    3.89080276578861   -2.22294965918698
C         2.19549124394187    4.02910848483854   -0.89053536484861
C         0.68945329302927    4.27792065486860   -0.99276998962934
C         2.53083926013072    2.65172424170405   -0.29363740739708
C         3.85904485907216    2.71427656716008    0.44281264445172
C         5.14269456155916    2.63804956813490    0.65841137441309
C         1.67247574183649    2.38558026759515   -3.75465662231952
C         0.82029433985735    2.99086981683492   -4.53405143528545
C         3.27072468685008   -0.15272599225125    0.24833920119174
C         4.51701741104647   -0.68641907283184    0.89653192865932
O         2.19372360872711   -0.03725781349100    0.85672828064559
H         2.37309239847132   -1.65142108447408   -3.97164342229592
H         3.85096981031628   -0.64695876311517   -3.78616001872009
H         2.23326240624458    0.13318229359804   -3.65401746243948
H         3.47440494265666   -1.85941889552074   -1.76449856684107
H         1.87082581487490   -1.22118183582275   -1.53770092629252
H         5.07904620687019    1.21981915444006   -0.97233779994499
H         1.50214201389263    1.20750219993221   -1.44504100214872
H         3.70978382170092    2.22415112982207   -3.18665373226496
H         2.48881987028831    4.55512642395613   -2.92836730298422
H         2.72781636045686    4.86157441505333   -0.41510209241965
H         0.21974260750546    3.64637119984426   -1.75394928411340
H         0.37151947535311    5.30580179644577   -1.20095225822288
H         0.21761741630167    4.03635138539666   -0.03331001306474
H         1.85173658806596    2.40224251374002    0.52851363799044
H         5.89885261269671    2.69822040759692    1.40730636474558
H         0.00363701240543    2.87715269273992   -5.20925587441765
H         5.00940642773542    0.22904847512824    1.21986956686434
H         5.22412542640338   -1.25960549859316    0.28838119432157
H         4.15669886551232   -1.14137186017697    1.82339700903646
