36
 energy: -50.518103197231 gnorm: 0.307943922973 xtb: 6.4.1 (79825abcba525fcdf90b791dcacef51065a7a4e7)
C         3.16910479445106   -0.56245757508893   -3.63796888407630
C         2.86864946325618   -0.82055401006826   -2.16876685734533
C         3.38896477796864    0.33506663549796   -1.23071891216458
O         4.77049444722584    0.61723797193534   -1.51152789115666
C         2.50085420245557    1.62588213606597   -1.44155357236790
C         2.91231191278846    2.62766847740663   -2.60465766807810
N         3.03320297237944    3.94241425326457   -1.96528689340350
C         2.15220505124496    3.92386895228072   -0.78813445295400
C         0.66092585578425    4.06799568167651   -1.09768830704652
C         2.35835771091818    2.51849676642257   -0.19791165606057
C         3.68260183640307    2.64422943258182    0.53759523429193
C         4.93465122373878    2.68635630570804    0.89904727817739
C         1.85381830448575    2.62666125250350   -3.69552687494220
C         0.77753221743453    2.85236067719102   -4.39603585803414
C         3.19566935952565   -0.21736207449726    0.21888459227126
C         4.40320389967071   -0.81325804157440    0.88596478558213
O         2.04706618430510   -0.18236916883352    0.69099445759437
H         2.84333465792333   -1.45870133986785   -4.19278588430048
H         4.23235719769158   -0.41761615307426   -3.85414917149890
H         2.61897842751885    0.26978605096947   -4.06949732273201
H         3.33536784758094   -1.76095043110337   -1.83747441717181
H         1.79050779392949   -0.91699064408600   -1.98941330704115
H         4.87908095187059    1.49842663362213   -1.11522968262942
H         1.47084502042785    1.32251486254590   -1.69127230919155
H         3.88061147932325    2.40888088794844   -3.05327443469395
H         2.63195073311970    4.73580899293157   -2.46175562524646
H         2.51839081856538    4.62932530911012   -0.03272352160677
H         0.36425330970132    3.52486966327553   -2.00094701403058
H         0.37326121828778    5.11716912301539   -1.22976996010341
H         0.07190258511166    3.77391633482123   -0.22126536047177
H         1.60317160887041    2.24946821507019    0.54819255916082
H         5.92677817748432    2.87523533685008    1.23999894745290
H         0.06117233357877    2.65972572337269   -5.16120386115848
H         4.08479881897262   -1.55750700466775    1.61382925072111
H         4.97291655302979    0.02025161720104    1.30914427998776
H         5.05416041447823   -1.16620392168832    0.08124422043048
