36
 energy: -50.518305207854 gnorm: 0.303778868248 xtb: 6.4.1 (79825abcba525fcdf90b791dcacef51065a7a4e7)
C         3.32126678687821   -0.54381776083794   -3.74450920986137
C         3.12895039245526   -0.74592851027497   -2.24864577188454
C         3.46145895430293    0.45843595807990   -1.28684258865487
O         4.86708930030568    0.69705347882559   -1.47221680413782
C         2.48100301604619    1.67838876402747   -1.51004126918258
C         2.87289748118471    2.76988809409333   -2.59665640389101
N         2.79921911671930    4.09031566605452   -1.96182679086462
C         2.00368519652471    3.96761964177460   -0.73127382673265
C         0.48419207377365    4.13403829854242   -0.79416430104703
C         2.39472016997232    2.55904970577480   -0.25278117049282
C         3.73954541571135    2.53718446616159    0.45529267502764
C         4.77804571147705    2.61489941966351    1.23984824575767
C         1.88707409888272    2.60038395111229   -3.74113271528647
C         0.75268826332638    2.67754010337320   -4.37930240599850
C         3.21183052027007   -0.24045435932478    0.08906762839422
C         4.36128600865159   -0.98480801476456    0.70787082102330
O         2.07243486438198   -0.24128052096478    0.58422250860755
H         2.97415807180225   -1.45815704569151   -4.25509728693169
H         4.38458776528656   -0.41175876475983   -3.96840103125124
H         2.78133929892311    0.29069655133742   -4.18445174881098
H         3.78702484584918   -1.59523711813293   -2.00877274348274
H         2.11553350337112   -1.14764018718957   -2.12426282333624
H         5.08620016087130    1.59413598821109   -1.16796336598219
H         1.49562897902279    1.24596108228804   -1.74952902019558
H         3.88142191803696    2.65440963435620   -2.99196928214957
H         2.52003295250205    4.80377604177214   -2.63263909911605
H         2.41456572927615    4.71181410165734   -0.03862806376841
H         0.03716151470008    3.39965125044188   -1.47218797637132
H         0.15485243289921    5.11620210279275   -1.15172698988791
H         0.13843379773904    3.94748398565097    0.22916211762120
H         1.63322594532576    2.22550234580075    0.46011898367974
H         5.60972114325052    2.40471971951364    1.87260388301881
H         0.04757406107303    2.99046404000079   -5.11459443991856
H         5.10007607724979   -1.17281476886690   -0.06925059459559
H         4.03005539084964   -1.91417168437235    1.18217156062433
H         4.79431241366969   -0.44150610664738    1.55238342435995
