36
 energy: -50.516609859616 gnorm: 0.298947859447 xtb: 6.4.1 (79825abcba525fcdf90b791dcacef51065a7a4e7)
C         3.40545013744192   -0.30809420508772   -3.83661615210816
C         3.06487344377838   -0.61840248325520   -2.38638925505597
C         3.36254920435611    0.51076734283208   -1.32691500070109
O         4.71698051334222    0.92111108075058   -1.58035614559153
C         2.37123806964021    1.74187898159784   -1.35951360949764
C         2.77506587161610    2.81720941179668   -2.45781777728128
N         2.75999551158252    4.06320936371195   -1.68372276434894
C         1.95882769606287    3.92839803138794   -0.45810245016701
C         0.48382676450903    4.20301962471037   -0.75720939094605
C         2.20726652205474    2.47551558657565   -0.01839392777266
C         3.51245721908160    2.50821217140322    0.75994389369135
C         4.76957731852907    2.34049585062125    1.06254959681576
C         1.81121855364541    2.68623172141636   -3.62582828869750
C         1.38166093895879    2.50750126539375   -4.84385147873004
C         3.20847929399999   -0.32274928391128   -0.01336888412363
C         4.43657250973729   -1.06696544697145    0.42952727192149
O         2.12673772071144   -0.45661428806973    0.58271567519816
H         3.39563088239349   -1.26464393666462   -4.38626800820071
H         4.38839341548149    0.17291083546787   -3.81062975947610
H         2.77417370481925    0.39071946470299   -4.37941886416290
H         3.74754395359941   -1.40659724627966   -2.03335078759395
H         2.00438139202815   -0.86523054421947   -2.25114985300227
H         5.04007031809444    1.44197385621511   -0.82560340659024
H         1.38025543627056    1.31061711373559   -1.57694563208212
H         3.79865675785429    2.61972788147577   -2.77403259434302
H         2.67538318507499    4.89339463106678   -2.26732617542039
H         2.33947175273935    4.59257128398237    0.32700285971436
H         0.07629469054149    3.32119586288400   -1.26236404495624
H         0.33857337967153    5.12954520499002   -1.32414255892169
H        -0.05997408498691    4.30733249406537    0.18880737225873
H         1.41307407385594    2.08841107132099    0.62872457397529
H         5.70704299504517    2.32037712880657    1.56949393825692
H         0.64804722415338    2.38412819588698   -5.60697125115495
H         4.35953465592953   -2.12380934938634    0.18008564004936
H         4.47015295561272   -1.03435405379441    1.52323682738176
H         5.39884656108474   -0.73629860704221    0.02880486492874
