36
 energy: -50.517488040278 gnorm: 0.308899119023 xtb: 6.4.1 (79825abcba525fcdf90b791dcacef51065a7a4e7)
C         2.64945855094553   -0.89384863549352   -3.36764013388498
C         2.71465441141070   -0.91463429250042   -1.84752197451903
C         3.29064964217607    0.37891141372693   -1.15391542632769
O         4.65273014255677    0.53464866491321   -1.58702186062665
C         2.41236832719817    1.66701573128847   -1.41622345354097
C         2.91399239644522    2.48497208686741   -2.68311144638649
N         3.10712190510675    3.84248479690260   -2.16174177494524
C         2.25602468616940    4.02548846301259   -0.97669649904059
C         0.77158999762829    4.24713017991896   -1.27307182066738
C         2.49331940681115    2.68272787342688   -0.26492543767189
C         3.91972109931784    2.64658053830663    0.25897642862468
C         5.19006813836396    2.83896591966196    0.48091376723544
C         1.75141599863747    2.39273154599686   -3.65795153405845
C         0.75628667546937    2.75587073828174   -4.41814386813054
C         3.25169534136224   -0.08305894432321    0.33905371138168
C         4.51419223320010   -0.52551361201365    1.02357039965193
O         2.16214137885625   -0.22189443100067    0.91956929244515
H         2.17658005193262   -1.83362653650633   -3.69991169668256
H         3.65723088343835   -0.94278632745937   -3.79216181091818
H         2.09114203210217   -0.03428013957564   -3.72945490791694
H         3.39296222734280   -1.71476943367487   -1.51344350432673
H         1.69931050761565   -1.05121650543371   -1.45473802240409
H         4.97127344598468    1.41278573693986   -1.31731424906472
H         1.36814282885788    1.35115129794679   -1.57475680797816
H         3.78125439152706    2.05196232089724   -3.18019116199116
H         3.00089415234269    4.54277481288625   -2.89336280404272
H         2.59065861542949    4.85246226654683   -0.33909096755788
H         0.31506801531791    3.55332604916017   -1.98658444580239
H         0.84266713308364    5.26216077262266   -1.68003908645307
H         0.19486409164354    4.33086615156966   -0.34467332342422
H         1.81520863649821    2.33271560407698    0.52057510753770
H         6.12303099657527    2.86296160708441    0.99593195369690
H        -0.15205707020157    3.02248773041007   -4.90762196151967
H         4.72747741610958    0.03385057819689    1.93279870955456
H         5.40414624566453   -0.42411161722394    0.39421261401426
H         4.38607100655684   -1.58865691179477    1.24538482233809
