36
 energy: -50.520543438980 gnorm: 0.311953239899 xtb: 6.4.1 (79825abcba525fcdf90b791dcacef51065a7a4e7)
C         3.49677175832773   -0.19842359166333   -3.77709546443113
C         3.03765748261976   -0.61994273803905   -2.38893932028124
C         3.45654167640709    0.47066570849575   -1.33005767395519
O         4.81545035673596    0.86265157877424   -1.58853951849738
C         2.37964700553785    1.62622146303339   -1.39627796442749
C         2.83543141339888    2.68484967788527   -2.49046779549254
N         2.90275072642308    3.99079103697222   -1.82567356503677
C         2.02993734380075    3.92476617799285   -0.64413784876766
C         0.55046690955576    4.11245523058334   -0.98538525392008
C         2.25125039898631    2.49139694460064   -0.13188203560942
C         3.56234404643912    2.48106052969892    0.63709665003868
C         4.36381122884708    2.22553098182451    1.63329188379046
C         1.78722932854546    2.64321617448441   -3.59044253014970
C         0.87586719422806    2.61420632305988   -4.52244160516930
C         3.28740365286123   -0.31878117260561    0.00861962342330
C         4.57220377345896   -0.88985655704241    0.53908096109728
O         2.18250322778010   -0.40165385805061    0.57051700047275
H         3.23658847432188   -0.91332572720090   -4.57610771001570
H         4.58106401899027   -0.06821510772949   -3.70243170355863
H         3.02209920569726    0.72959855987189   -4.08522875624122
H         3.58800433430773   -1.55042274291257   -2.18096943472681
H         1.94948693230353   -0.74592900587297   -2.32673401282283
H         5.08586067831500    1.52072270716966   -0.92584999836957
H         1.43729313458861    1.17433980306624   -1.74710871430363
H         3.77717919498255    2.38167864035222   -2.94645848500749
H         2.63610294159535    4.74541582949065   -2.45527673803998
H         2.36558958333484    4.68012243137070    0.07640421273317
H         0.30685668343731    3.47145165235420   -1.83899244348480
H         0.29306429597180    5.15207271718774   -1.21755069368221
H        -0.03287417993110    3.85387472725161   -0.09409542817716
H         1.44979545512436    2.17063401842969    0.54201338572853
H         5.21307833438910    2.23124334081163    2.27745955304399
H         0.07985926679947    2.65518788741836   -5.22986910414742
H         4.47966131378414   -1.16960224926991    1.58705674232215
H         5.42490740454422   -0.25742562051682    0.27202408946052
H         4.67334077447872   -1.78449128590225   -0.08163667437981
