36
 energy: -50.520677849593 gnorm: 0.308986494683 xtb: 6.4.1 (79825abcba525fcdf90b791dcacef51065a7a4e7)
C         3.36252346240955   -0.17067181754991   -3.80753611667721
C         3.08233837013967   -0.68627159021558   -2.40357922188563
C         3.44303607278032    0.36938821962426   -1.28930789532567
O         4.84345893735166    0.66958898949119   -1.41498155266764
C         2.45549940403659    1.59848916179161   -1.40540487936230
C         2.79384159087235    2.68106631119498   -2.51861453174495
N         2.85701002161084    3.97727329162813   -1.83463845332385
C         2.03265941975610    3.86271483723935   -0.62240433252608
C         0.52922739996938    4.09117201144597   -0.78976383962756
C         2.38965422350519    2.45077358379824   -0.12752107861548
C         3.76016834069641    2.57183979699515    0.51857148305210
C         4.94025613541176    2.90586574993568    0.96114279621013
C         1.75133201319444    2.57029135363245   -3.61920891258955
C         0.92855038238250    2.60292393441929   -4.63015414787937
C         3.11753028356252   -0.32997045895019    0.07041058669745
C         4.26738505276010   -0.92821541710858    0.83078196953603
O         1.94137256659669   -0.49256967194207    0.43594582297294
H         3.01004076894323   -0.89414146245256   -4.56222055093229
H         4.44050905754000   -0.19767159488902   -3.99578249276178
H         2.88265703226212    0.78323849812255   -4.01068282657734
H         3.69148489905368   -1.56994216333376   -2.15864456483845
H         2.01399742872966   -0.92484998271353   -2.32884526806247
H         5.01628633800372    1.45596085817321   -0.86992492708726
H         1.47590058920346    1.18889794215486   -1.70193691645258
H         3.76934499937757    2.45759172973025   -2.94894145772768
H         2.51846043721915    4.80718952666540   -2.31794268907135
H         2.45567311133170    4.55866756264633    0.11184057031888
H         0.06063136532715    3.27515992402197   -1.34960202125369
H         0.34804218426046    5.04673920152848   -1.29476351870667
H         0.13702474919550    4.14993714091676    0.23213243472362
H         1.78181852245967    2.04156563822593    0.68638218632459
H         5.98190952938607    2.90640686819410    1.18741062336701
H         0.17156426824732    2.52293709409988   -5.37603341131522
H         3.96677548878884   -1.43857785753154    1.74414885172213
H         4.93340521904529   -0.13692462140359    1.18948485198316
H         4.82075458167692   -1.59905717298682    0.16772551014453
