36
 energy: -50.506518492979 gnorm: 0.301372832470 xtb: 6.4.1 (79825abcba525fcdf90b791dcacef51065a7a4e7)
C         2.85471813346670   -0.39430830250759   -3.83664148461140
C         3.03300861942254   -0.71521901401196   -2.35993210904861
C         3.45523732586155    0.44660498418821   -1.38115278166463
O         4.81344299203000    0.82069024254519   -1.66826976560903
C         2.48871892636072    1.69709136219143   -1.42016967122588
C         2.99010526363488    2.93822354477725   -2.27684178481676
N         2.63099758006023    4.14959617747985   -1.53146666105738
C         1.73726952186417    3.80651218529283   -0.41534272557402
C         0.24587485087809    3.96252419504365   -0.71851247053739
C         2.25759752346557    2.40019748215908   -0.07260296413866
C         3.60418557504022    2.49648585699161    0.62584585549164
C         4.62621714295428    2.56910318211820    1.43221309007874
C         2.54096800812231    2.85080912850775   -3.72633817174418
C         1.74636898974490    2.67833026422156   -4.74560665023628
C         3.24362698568715   -0.28755618534952   -0.01729084842840
C         4.52835756337269   -0.81755755381612    0.55436775729036
O         2.14243340930770   -0.47905806945961    0.52502014970016
H         3.19432242216776   -1.23274120135005   -4.46822692587139
H         3.45615723086288    0.46795372719325   -4.14159038210614
H         1.86786120822039   -0.09363620255869   -4.17897897908672
H         3.82575563992213   -1.47362877517771   -2.26886643207570
H         2.09060588481615   -1.10301969443285   -1.95330586810748
H         4.97801034956665    0.63691504452345   -2.60873827269535
H         1.56089597446411    1.29609220515687   -1.86023137956996
H         4.07226455208453    2.81644357344801   -2.30565115364915
H         2.25388523081159    4.92675575452216   -2.07069669415043
H         2.06435388861372    4.42713103942175    0.42742320106568
H        -0.13782860798262    3.25036189511186   -1.45639678985149
H         0.05349481469746    4.94577766264564   -1.16254394569260
H        -0.44768446222569    3.92469288195356    0.12948075850883
H         1.60915787003160    1.85812229272539    0.62384115561379
H         5.61450620055521    2.76755959665355    1.77882384149483
H         1.53044412305780    2.50747518373134   -5.77514381111434
H         5.23040665787945    0.00080269943906    0.70432962709826
H         4.99412484461514   -1.41197658501663   -0.23817158068307
H         4.27672077046998   -1.46544845393081    1.39864654638781
