36
 energy: -50.516250851890 gnorm: 0.305727369018 xtb: 6.4.1 (79825abcba525fcdf90b791dcacef51065a7a4e7)
C         3.20511752356255   -0.26903099997298   -3.83897475026240
C         3.33977020484176   -0.72990775043814   -2.39505541577460
C         3.50393017189985    0.42825159290848   -1.33777612677309
O         4.86797305117637    0.86749818670102   -1.45417214730479
C         2.52057770079827    1.65805977242339   -1.47914824657833
C         2.86377643454812    2.78159779872750   -2.54945727176476
N         3.05204887120658    4.02430254417033   -1.79301527892787
C         2.09706460414917    3.91029133911643   -0.68072232078824
C         0.63954040977040    4.14062641066966   -1.08455237427044
C         2.30641003386114    2.46768055165422   -0.18982371048328
C         3.49842054922290    2.31101634366787    0.74021331045151
C         4.56748221181371    2.67162078263650    1.39375866690075
C         1.74538366693262    2.74191556297768   -3.57806229677736
C         0.64581769881456    2.69090000312716   -4.27691627749333
C         3.21444436328350   -0.36078761918858   -0.01963121488868
C         4.38075739713960   -0.96125749598529    0.71342914815958
O         2.07726340045949   -0.65603142278791    0.38416580977743
H         3.10366258762764   -1.20774295032675   -4.40970037802313
H         4.15734318895007    0.18093623437464   -4.13732756094649
H         2.34691403863780    0.35111960440260   -4.08470889672699
H         4.17406262545206   -1.41376953850187   -2.17547541796781
H         2.43475804667364   -1.29763524381230   -2.14506407858670
H         4.98304008196715    1.63575167879344   -0.86946461096968
H         1.56545885380534    1.21618833846455   -1.80748906959439
H         3.79155840403955    2.47929981559341   -3.03377701664821
H         2.88030934846855    4.90986119633892   -2.26550991344747
H         2.34178521654682    4.62250636259838    0.11631465534837
H         0.26897452834845    3.46524934159797   -1.86264202435311
H         0.50924726840496    5.16034702655353   -1.46422984092911
H        -0.02293484120692    4.03913190461059   -0.21715761848367
H         1.45477875921817    2.20085810566398    0.44490762948150
H         5.31190637766193    2.86847202695581    2.13086210600543
H        -0.18293557987929    2.74875665668408   -4.94443585447170
H         4.78355103398955   -1.72365612763530    0.04891382809312
H         3.99313937558720   -1.46241859001582    1.60616739166295
H         5.23450370929522   -0.31704542281510    0.94146072540113
