36
 energy: -50.501319461634 gnorm: 0.318449932997 xtb: 6.4.1 (79825abcba525fcdf90b791dcacef51065a7a4e7)
C         1.72596025437990   -1.05646700524189   -3.13603068944684
C         2.24386000739046   -0.92457970048425   -1.71131059219770
C         3.25370621468272    0.27821917696071   -1.57128719354419
O         4.23169821712497    0.27315566589004   -2.62513945604831
C         2.46876059780952    1.65053232250464   -1.56763546346909
C         3.33180323316960    2.89536399409792   -2.04850552998224
N         3.06658039363355    3.91221555719608   -1.02496468853353
C         1.72398249114186    3.66572036027598   -0.47828367546133
C         0.55750246953877    3.99546786842795   -1.41161141945992
C         1.87000466174521    2.15260314030035   -0.24357822073504
C         2.84827311334348    2.01461156670884    0.91156279528443
C         3.40223354415314    2.09618245139352    2.08907031689263
C         2.93265960466960    3.23213448305645   -3.47597721244952
C         3.05524723421912    3.48339472409029   -4.74950985815799
C         4.02519641626822    0.02277769156954   -0.23583092879418
C         5.33853826933400    0.74153616446129   -0.10642038358166
O         3.59572063880111   -0.75283787993572    0.63444059244380
H         0.78449039604497   -1.62515592581736   -3.04984257960869
H         2.34177949479179   -1.69233450477456   -3.77996998239626
H         1.40273241607680   -0.15657345849702   -3.65294522176652
H         2.58006841774978   -1.93083818306336   -1.41748424230205
H         1.44722282568667   -0.64766756546042   -1.00949433841725
H         3.83451792076779   -0.30445716717295   -3.29889607619259
H         1.64196904394506    1.48230957259082   -2.27716129420721
H         4.39962451399476    2.69596740781794   -2.13052868494075
H         3.04601107359415    4.79761971516626   -1.52755414496506
H         1.58833813416326    4.26165831160262    0.43213651691961
H         0.53639934435359    3.31334747129683   -2.26784922857074
H         0.71361614548877    4.98163522059229   -1.86334573302160
H        -0.42120146838650    3.88582023116748   -0.93029629168377
H         1.01398788927938    1.56974413520329    0.11260233018967
H         3.86310920577734    2.21815202918284    3.04246229978656
H         2.97527101213916    3.81049570455801   -5.76063326532598
H         5.34930551442832    1.65941565023528    0.47877727918359
H         5.65702887000365    0.94497329411470   -1.13382917086009
H         6.04699485383783    0.04746369999715    0.35427805059489
