36
 energy: -50.503504572202 gnorm: 0.302775987230 xtb: 6.4.1 (79825abcba525fcdf90b791dcacef51065a7a4e7)
C         1.41064430691419   -0.63911365902615   -3.07127760621448
C         2.44609099900455   -0.87076481996305   -1.98057615201681
C         3.35398068919998    0.35047743732846   -1.56775084666901
O         4.39486008474173    0.54017590514929   -2.54124105340631
C         2.50726799227967    1.68052521116007   -1.45179015279820
C         3.40167678749888    2.93085534699382   -1.85476905466737
N         2.81681312881798    4.07173465977820   -1.14182093133042
C         1.51220122293099    3.65418373350054   -0.60719195973414
C         0.28461913230062    3.89956210447348   -1.48659027625878
C         1.79534443853992    2.20038633106505   -0.19217885085825
C         2.77120728259326    2.24488741899713    0.97234378254792
C         3.57174643664962    2.39968584512536    1.98980357897489
C         3.43691522088393    3.16045165985830   -3.35691725966268
C         3.07601652217710    2.85989012450138   -4.57324770924898
C         4.06293079977162   -0.03326549483985   -0.22833976011202
C         5.56363199900744    0.02537266601775   -0.17652127786306
O         3.42170379149164   -0.61789512835209    0.66072582588805
H         0.89815502309978   -1.60168376635428   -3.23865291695778
H         1.86451077370364   -0.30047906865590   -4.00805424626582
H         0.67017527500932    0.11955644398347   -2.83125561822696
H         3.13255321464907   -1.66704894275600   -2.30711464663317
H         1.90855338504067   -1.08224190648519   -1.04773750349295
H         4.02730228916006    0.24967533507829   -3.39320786145358
H         1.78942378019138    1.54449043963065   -2.27732290074061
H         4.36932882331678    2.77021945752272   -1.38087587086043
H         2.77132579807493    4.94347351437481   -1.66618917194509
H         1.37040276981138    4.15834018611217    0.35620091806345
H         0.37596415893072    3.45597091214090   -2.48346524435599
H         0.04288044738086    4.96785678387860   -1.52223156479998
H        -0.57924154313800    3.45287173718136   -0.98086238001827
H         0.87226364139340    1.68986452539788    0.10217339196882
H         4.17856824871458    2.46079452637009    2.86403023229665
H         3.04224538768506    3.08259872006463   -5.61489170200592
H         5.96004159959371    1.00954717623645   -0.42010896212377
H         5.79622097037744   -0.57306843946075   -1.06317925403212
H         5.97785870006674   -0.38141672004216    0.75020899697405
