36
 energy: -50.521379932356 gnorm: 0.306735234655 xtb: 6.4.1 (79825abcba525fcdf90b791dcacef51065a7a4e7)
C         3.21489414028895   -0.67203296950845   -3.67921828913261
C         3.09725464423114   -0.87369248026698   -2.17557731833552
C         3.40412226818322    0.37774764735821   -1.26681390100791
O         4.74431027586836    0.77145679112154   -1.60738374440400
C         2.37921106723827    1.56514039345960   -1.46442931083787
C         2.71310377416116    2.55463158793058   -2.66238896135567
N         2.96055328404194    3.86667837434788   -2.05471465265434
C         2.18821646428276    3.91421811660224   -0.80434473290504
C         0.75482758059826    4.39960109809594   -1.02864229864705
C         2.29769342615071    2.48840010349545   -0.23778439427922
C         3.50795122310047    2.34940378757106    0.67125778101247
C         4.67288244821775    2.42445967544964    1.25207769625664
C         1.62145482438775    2.59773311672926   -3.71920029708889
C         0.68168780134574    2.94249000740600   -4.55467946548375
C         3.32981605733787   -0.13671059565315    0.20753417887244
C         4.52030450364401   -0.83577711061254    0.80105835059209
O         2.28310780854116    0.00140584857058    0.86230680439194
H         3.05958625875227   -1.63411596328880   -4.19639983145360
H         4.21774290531557   -0.32450880402166   -3.94706141403787
H         2.38447163111649   -0.05970277089488   -4.02117655109345
H         3.78818693596461   -1.63962933759090   -1.79102632445515
H         2.04905865993765   -1.10873263633166   -1.95219760967290
H         4.91284653831240    1.72168390168829   -1.48905911228852
H         1.35643420451359    1.16952285319356   -1.57723145138239
H         3.64361542488938    2.27766838013013   -3.15652307952686
H         2.72841906598459    4.67158679579887   -2.63367571261704
H         2.69949080354374    4.60301574317487   -0.12129075366652
H         0.19888477019377    3.67243282431843   -1.62950056407400
H         0.76687257637808    5.38695538267166   -1.50398201874884
H         0.27438821385031    4.57005311909804   -0.05824424726534
H         1.44991339992800    2.15884041458119    0.37214458648895
H         5.62798945870796    2.38759997246617    1.72393697772133
H        -0.07398958526979    3.06019155142341   -5.29687877422780
H         4.27885608482763   -1.82316922017045    1.19071779115484
H         4.82460596591583   -0.28732392624485    1.69827152061667
H         5.36903090343957   -0.88258305345910    0.11304449330293
