36
 energy: -50.515302050947 gnorm: 0.302492734520 xtb: 6.4.1 (79825abcba525fcdf90b791dcacef51065a7a4e7)
C         3.41749799114536   -0.19672026371238   -3.95657249062695
C         3.04348688558851   -0.74033548895103   -2.58542700085445
C         3.40101345197853    0.25459019057001   -1.41563270007070
O         4.78129569942447    0.64901124947837   -1.49532924873540
C         2.49275808099887    1.54764799304926   -1.36593325709419
C         2.82187888547268    2.64157907969722   -2.47077657268030
N         3.04040784679497    3.83418404724206   -1.64500143641696
C         2.04479443211295    3.78966158239800   -0.56381652645368
C         0.56325240858886    4.08207332858321   -0.80884373061660
C         2.35697855319819    2.36620772026200   -0.07162446607978
C         3.67304818314782    2.45496695613987    0.68367953446406
C         4.72592512088124    2.99406589024280    1.23219793003501
C         1.71739454988562    2.81673170255200   -3.50026249558287
C         0.94768558656895    3.01740597875852   -4.53337562319464
C         3.14381195875450   -0.54128657511844   -0.09490618673955
C         4.27887900867464   -0.61213931551960    0.88735159862220
O         2.00848280494179   -1.00866288203683    0.09480043203752
H         3.50763237310472   -1.00256199819155   -4.70470072991453
H         4.39407953147055    0.26641848179660   -3.78333961345698
H         2.71814697360784    0.53915267539114   -4.34501095257250
H         3.64786429215230   -1.64022021735900   -2.39343327543907
H         1.97718405111512   -0.99790355189211   -2.56275240867053
H         4.84127929889640    1.43651829089490   -0.92825660432495
H         1.48136373677725    1.15007657340284   -1.55121283363592
H         3.71990099723003    2.41926435666741   -3.04598220557996
H         3.12072695239448    4.68755353483748   -2.19479151421939
H         2.39590489999045    4.43415483978678    0.25089584345174
H        -0.01602907351781    3.32822740594425   -1.35200673402776
H         0.48146708716264    5.03408190386379   -1.34545555367854
H         0.13962974972129    4.27432035592958    0.18369502391160
H         1.58010066887246    1.95971765344047    0.58456186337901
H         5.60197179779282    3.01140239557971    1.83922420720128
H         0.25117480491421    2.95041613699788   -5.33720823378591
H         5.15886807082580   -0.86330520620064    0.29776704385111
H         4.14236362811720   -1.19500866385693    1.80387689193522
H         4.34806039733332    0.43255388319439    1.20313701739482
