36
 energy: -50.517660403038 gnorm: 0.306029508417 xtb: 6.4.1 (79825abcba525fcdf90b791dcacef51065a7a4e7)
C         3.11254508710573   -0.46209139434660   -3.70120955542779
C         2.90366352380297   -0.77534623653655   -2.22686845890345
C         3.39628374473671    0.33545240593169   -1.22209348042504
O         4.80297785916211    0.55111610237836   -1.42654252931814
C         2.47355384421965    1.61299767138222   -1.34796620388638
C         2.83273912133525    2.53621296253884   -2.59068256318825
N         3.12253470399600    3.84472557096971   -1.99421011935278
C         2.19569932555933    3.98978684339276   -0.86190161823769
C         0.70308640415284    4.20599778049044   -1.11855163632170
C         2.38201652310075    2.61917547617812   -0.18911397416545
C         3.69494457614096    2.59733848821798    0.57648687492396
C         4.91064851654626    2.81869330955975    0.99255885007460
C         1.66945449054288    2.64293504412503   -3.56319715660323
C         0.59764114286294    2.70057496043937   -4.30342589881966
C         3.18327568180035   -0.31532004017917    0.18325833826704
C         4.46608632573377   -0.76997496886374    0.82037168962528
O         2.05595151046285   -0.34546148029086    0.70444275634201
H         3.05340317168750   -1.37374184658674   -4.31975353705374
H         4.07273855413803    0.04950972704090   -3.82167294443092
H         2.26626092086871    0.11915923398248   -4.05819146751067
H         3.44268202037602   -1.71874890206839   -2.04973395645823
H         1.85323640732912   -0.99717137242827   -2.00047573977568
H         5.09296179156523    1.44599132693576   -1.18068810142493
H         1.45488899106585    1.24063302787662   -1.54539102670597
H         3.72795659860848    2.20558937935829   -3.11604223595529
H         2.94070272807352    4.57869550792140   -2.67625487017432
H         2.50061261677891    4.81653607524705   -0.20927618973271
H         0.23698608309501    3.43382803768457   -1.73934237409844
H         0.61515665688584    5.16987064465909   -1.63253498092483
H         0.27278931479530    4.32032231786951   -0.11689172771977
H         1.54103113177458    2.32430923255261    0.44740105564545
H         5.86279601521034    2.73730207708934    1.46481919225677
H         0.00768204386163    2.63917892544486   -5.18883008374532
H         5.10993774289652   -1.20123105669055    0.05581394864437
H         4.27557501344105   -1.57769849079239    1.53429038076316
H         4.92070456091556    0.12889095123887    1.24610950550805
