36
 energy: -50.517391299388 gnorm: 0.308969195700 xtb: 6.4.1 (79825abcba525fcdf90b791dcacef51065a7a4e7)
C         2.60648893776941   -0.60908067245894   -3.45330896503775
C         2.80466829379465   -0.84649763488892   -1.96340966894022
C         3.41069582918106    0.42184276905618   -1.24915177954193
O         4.72905125899559    0.60974114219831   -1.79112202343723
C         2.44957250653348    1.66807954380694   -1.39925907232931
C         2.82530126965072    2.58668687973078   -2.64049755190464
N         2.90753825706573    3.94624993182851   -2.09571181546748
C         2.15329676089686    3.97087190921784   -0.83368857822910
C         0.64088953792701    4.08262349880952   -1.03529637048664
C         2.48283430855834    2.61428092039302   -0.18793420051536
C         3.84579443175345    2.72865801340788    0.47513375686314
C         4.99180977186375    2.64539937255635    1.09138591385043
C         1.70890913372036    2.42981578592080   -3.66003934555675
C         1.07522516749853    2.64158887316928   -4.77970073655810
C         3.38959606173613   -0.07557297917485    0.23274677164256
C         4.55784556118029   -0.79101260702734    0.85045779411416
O         2.27592596074176    0.00127977446561    0.77793853267311
H         1.97217695281036   -1.36508730482338   -3.94656675697671
H         3.57848293543174   -0.53355775146337   -3.95104643458928
H         2.14603374823076    0.36316323262632   -3.60889841816201
H         3.55304396542714   -1.61931617733220   -1.72971857914210
H         1.86758598235084   -1.11214637769454   -1.45827139663056
H         5.05073473461020    1.35217265147782   -1.25200055876292
H         1.44527207668890    1.25255003572537   -1.58372027977541
H         3.79080702679723    2.37171283505906   -3.09691169611081
H         2.55300220167142    4.58257033509270   -2.80730180111851
H         2.55414165801099    4.77786115181595   -0.20879011799085
H         0.32257581528536    3.11141559326748   -1.42811737597622
H         0.37951248718019    4.87017032635781   -1.75112696848365
H         0.19701163389917    4.16793711804570   -0.03667619870822
H         1.80009782361077    2.28936285151464    0.60431137183357
H         5.97709343860014    2.74525130440514    1.48570162934536
H         0.48476728003614    2.82255252503925   -5.64824747332352
H         5.26507385295448   -1.01764137366128    0.05450393760926
H         4.19641079461460   -1.70123122214420    1.33959859896140
H         5.01795761495917   -0.18645802268102    1.63703329346288
