36
 energy: -50.516183520563 gnorm: 0.299748509417 xtb: 6.4.1 (79825abcba525fcdf90b791dcacef51065a7a4e7)
C         3.53742902542097   -0.12966896422447   -3.83287412775536
C         3.26804837267467   -0.67368874547664   -2.43755398095349
C         3.36764648477627    0.44584582813338   -1.33173138842709
O         4.72908499732638    0.90571481851226   -1.37760372046177
C         2.45364990080775    1.72837023642564   -1.47007049122130
C         2.86048193270758    2.79958337512425   -2.57128554887381
N         2.95544157796828    4.04761537987978   -1.80619412807359
C         2.11437941422419    3.96519350923820   -0.60286117366076
C         0.62121704764312    4.16644544958091   -0.86832968883440
C         2.35405628030452    2.51414548892076   -0.15236426155556
C         3.67183054127603    2.45645912911981    0.60297991928963
C         4.77666768556723    2.34666231889319    1.28659489746911
C         1.82964650209491    2.70391757914939   -3.68422389975074
C         0.79406873490305    2.18207531763561   -4.28029787344628
C         3.01215650782634   -0.33173658484362   -0.02295967585110
C         4.16998904422197   -1.05671782832951    0.60318222355434
O         1.85682870934666   -0.39777769508925    0.42898914089655
H         3.83313657716182   -0.87800988750356   -4.58768792908706
H         4.31822893996059    0.63744432756038   -3.82251463117757
H         2.63807138725080    0.35363030592429   -4.20578554041411
H         4.04039739272980   -1.41964242379135   -2.19474487153021
H         2.27194600777102   -1.12682130701260   -2.35813019323252
H         5.04380985708342    1.43571945252402   -0.62568610772107
H         1.40442679042832    1.44614670680421   -1.65659343399192
H         3.82924648664403    2.48768247694506   -2.95979829251906
H         2.62642330510824    4.82900203858436   -2.37023458963310
H         2.45613992025872    4.73638204779422    0.09776308096338
H         0.32559566745239    3.68675589395270   -1.80714952854233
H         0.38900576372405    5.23438597600844   -0.94921458520467
H         0.02037649709693    3.74867114554533   -0.05223930342194
H         1.55662144306603    2.21900172533394    0.53781089494546
H         5.77945974456718    2.36834993904260    1.64739530896720
H         0.04282915088208    2.05641305094575   -5.02569030673318
H         3.87126967432654   -1.97356274443219    1.10839221112661
H         4.57881851973582   -0.33505454649105    1.31764167963928
H         4.96970869219401   -1.22450732516637   -0.12358151778850
