36
 energy: -50.514364964692 gnorm: 0.298114635072 xtb: 6.4.1 (79825abcba525fcdf90b791dcacef51065a7a4e7)
C         3.00951110212068   -0.66501073350851   -3.62412748193399
C         2.76088312481714   -0.81849841208719   -2.13078644686060
C         3.36387884308456    0.35983282262010   -1.27401765963327
O         4.72934258811561    0.69160088359614   -1.57821712091205
C         2.41992990807031    1.62409721943330   -1.37397921359528
C         2.83837081384867    2.55223240993779   -2.59428933617754
N         2.80604371315127    3.91922392236709   -2.06301230504683
C         2.10265534464112    3.91422391717186   -0.77173041154385
C         0.57958678826144    4.05424207950162   -0.80588906378437
C         2.50834860584245    2.56272090285728   -0.15953321604948
C         3.90606229822975    2.60743179876118    0.43611679073681
C         5.06145258843986    2.89550480462531    0.96728260488082
C         1.88859407288477    2.51489001812450   -3.78043229179437
C         1.24740262275842    3.02606440739648   -4.79414779529207
C         3.20401562335843   -0.28820162621745    0.13962517891411
C         4.47473261908294   -0.65408672473833    0.85351179135967
O         2.06312381786244   -0.46755129154160    0.59744729404506
H         2.43267035059656   -1.51748136823630   -4.02130444508197
H         4.08983640131920   -0.72774412323008   -3.78899228352004
H         2.63273904954163    0.31124527259420   -3.91815520590053
H         3.18393639289998   -1.80180421295217   -1.87376154538168
H         1.70300562390753   -0.85995037537126   -1.84263003560022
H         4.88080178563747    1.51768027863759   -1.08832968336896
H         1.36150957576770    1.32476505802749   -1.44784889292035
H         3.83600275222031    2.20779350784099   -2.86414382935171
H         2.51158749252008    4.63881089477992   -2.72062153295003
H         2.40121207204187    4.81488957978156   -0.22212000683771
H         0.03911658172410    3.37847607265919   -1.47679071011918
H         0.30137856951576    5.06868171090573   -1.11325502616157
H         0.16358158406394    3.89332452060839    0.19540682813621
H         1.86112996440265    2.31435381277815    0.68827320837459
H         5.95547331420647    2.99791926418499    1.53866463750315
H         0.49375610333240    2.90905969389906   -5.53851909306240
H         4.24357073141412   -1.20657259008601    1.76257644858597
H         5.05330890000688    0.26125620333450    1.01409995807110
H         4.94395308543195   -1.36481951180355    0.16752240852833
