36
 energy: -50.512242561359 gnorm: 0.304160554999 xtb: 6.4.1 (79825abcba525fcdf90b791dcacef51065a7a4e7)
C         3.70904862589282   -0.37491979092845   -3.70198468236449
C         2.92944545356198   -0.57334377118629   -2.41036221618297
C         3.35776048945286    0.42377885524406   -1.26650305925223
O         4.73930461401670    0.79837638087962   -1.40108057044485
C         2.40671520648934    1.68513552353047   -1.20414479879673
C         2.82621904506035    2.62148147224225   -2.41779932673605
N         2.78719100699791    3.98930700087453   -1.88912527639664
C         1.97551188540938    4.00983555795757   -0.66317882282033
C         0.47230801066854    4.19158781903792   -0.88193428016009
C         2.35520918998941    2.66494847536242   -0.02049576200230
C         3.73191040825728    2.90119332295462    0.57890702107282
C         4.78210765021146    2.93534609187708    1.35089746778931
C         1.81648395717517    2.42647141615350   -3.53708997296353
C         1.02046050155777    2.78390654573982   -4.50592000652350
C         3.12507503002702   -0.54097021450435   -0.05860917100146
C         4.36123471737406   -1.30316345083190    0.32765287710975
O         2.01837015072474   -0.85095791583858    0.41310411088079
H         3.31399925863123   -0.98741913345184   -4.53022469804754
H         4.77624206430516   -0.54778205884953   -3.53041711196265
H         3.64056734092342    0.63055329104568   -4.10919404262738
H         3.13213252432092   -1.60257377639040   -2.07640157076400
H         1.86556947138998   -0.35411736462737   -2.56516810820021
H         4.87925214761347    1.30573086387045   -0.58355817074829
H         1.44615549502271    1.15606686789588   -1.31693430090469
H         3.83080310619173    2.40407233995691   -2.77873314026989
H         2.57153075601088    4.69184854262881   -2.59402655456236
H         2.31153361693002    4.83615235116834   -0.02545136763115
H         0.05431252255708    3.40610054111132   -1.52003009395190
H         0.30611368952453    5.15563770178286   -1.37584589752361
H        -0.07490475403584    4.25760779916329    0.06556126307858
H         1.60413998572538    2.27208276971105    0.67297773719187
H         5.72079173611813    3.35035766105461    1.63878078543330
H         0.33542453436403    2.84816820639024   -5.31977377852740
H         5.05090407921274   -1.31702007211773   -0.51451050589508
H         4.13856590669010   -2.28742467658635    0.75196429896992
H         4.87974793089035   -0.69506306200088    1.07414355607297
