36
 energy: -50.517651948562 gnorm: 0.299495210551 xtb: 6.4.1 (79825abcba525fcdf90b791dcacef51065a7a4e7)
C         3.01791607698031   -0.69224077038541   -3.56113507381190
C         2.88676608438061   -0.95971469107998   -2.06892223271323
C         3.40973710635326    0.29593999423035   -1.27145518882974
O         4.76970310632646    0.58861501780590   -1.63468017438982
C         2.48639694951936    1.56322315865750   -1.47352614438386
C         2.75426647620352    2.50161783744599   -2.72785697061308
N         2.97677212755437    3.81424722902904   -2.11185257294990
C         2.22907750737662    3.90238203102149   -0.84877136370541
C         0.74380370735950    4.24971360682787   -0.96638193526349
C         2.48850054091927    2.50572652882591   -0.25886803250257
C         3.86989151090042    2.54696454458716    0.37395106406396
C         4.82939577529081    2.76141292306865    1.23034664120605
C         1.58591979591781    2.54625680373763   -3.69913384650506
C         0.71737573956043    2.96937957473295   -4.57471545856685
C         3.22532078706750   -0.12606822080061    0.22246269385545
C         4.45191445520900   -0.65240087355862    0.91287531240604
O         2.09922430571353   -0.05196692520959    0.74190201454780
H         2.80059079068362   -1.58037755998067   -4.17853586318481
H         4.06230533774063   -0.49597763811058   -3.82371932044251
H         2.46435282440108    0.18949481937968   -3.87353760881635
H         3.43283434679400   -1.87672182381025   -1.79904535303990
H         1.83851123119038   -1.06994566112220   -1.76417958771141
H         5.12323760911676    1.37504058439229   -1.18536410295953
H         1.44098462800696    1.27056767685583   -1.66529662687434
H         3.69443319096135    2.36468296453294   -3.26083394559604
H         2.85145169379703    4.65269477122159   -2.67599819112695
H         2.77125433004386    4.62789360462873   -0.23064224322028
H         0.19287329963047    3.46757367670172   -1.49893200540108
H         0.70496160891041    5.18069053767430   -1.54321350664444
H         0.27195636697729    4.37729846396503    0.01475538729330
H         1.72415236343523    2.21730715186476    0.47047416547418
H         5.72708400024292    2.96915868337206    1.76629139031693
H        -0.17575560011725    2.89443605278803   -5.15131034738866
H         4.47760054600513   -0.42749392107789    1.97769082828360
H         5.34818721356011   -0.31320047285608    0.38369672562263
H         4.44310782969529   -1.72550666502435    0.70250237189991
