36
 energy: -50.516700199705 gnorm: 0.302194929858 xtb: 6.4.1 (79825abcba525fcdf90b791dcacef51065a7a4e7)
C         3.60823545316575   -0.55959016828905   -3.70144734118397
C         2.92899994957388   -0.72777682330905   -2.35022783601105
C         3.32781122994035    0.36642766678392   -1.28731337421741
O         4.70442713911824    0.75170125121986   -1.44090859760037
C         2.46965742123094    1.69295475195004   -1.34470919494348
C         2.75494919359896    2.55943437094509   -2.64605702822353
N         2.91055196657925    3.92899360473037   -2.14399988001841
C         2.26756709358950    4.02132521447432   -0.82482042093561
C         0.76417666743034    4.29967749013756   -0.87817733167789
C         2.61760332356673    2.67409263017151   -0.17031921437457
C         4.02939824864508    2.70677393014528    0.39196950001482
C         5.13723732703489    3.06425015509311    0.97929670022836
C         1.55080365104541    2.28616398216804   -3.53248931425349
C         0.35416024095816    2.28460229163227   -4.05026043857104
C         2.99936767372369   -0.31295266334074    0.08179514907910
C         4.14498629388090   -1.05941555883310    0.70515603841971
O         1.89020967245406   -0.16719858421446    0.62209670416836
H         3.68711245104389   -1.48571627881782   -4.29581239359037
H         4.58662915615329   -0.12275925343892   -3.47752069142643
H         3.04297252314354    0.15069512953408   -4.29932515790003
H         3.19351958409207   -1.69773214567204   -1.90173904227408
H         1.84198237632242   -0.77625778802446   -2.49129366294917
H         4.86192993542597    1.57005786743261   -0.94008720228247
H         1.39522895409520    1.44725139304421   -1.36802017559813
H         3.67542489403794    2.22128106720681   -3.12051029887654
H         2.89134724599133    4.68473346971511   -2.82623752088741
H         2.63392586189717    4.88289532242592   -0.25395742891241
H         0.11928374439010    3.41648527001823   -0.93259587948825
H         0.55510092275355    4.93357599292959   -1.74732716600776
H         0.40340685805916    4.81402084866326    0.02006779405136
H         1.97349641331268    2.41562199786181    0.67683669383549
H         6.13632046237356    2.89415823476193    1.30966142562308
H        -0.51924237038826    2.20210111243608   -4.65534160655670
H         4.43942164874171   -0.61235817232164    1.65306031263688
H         4.96588638855898   -0.98617360983580   -0.01536488436463
H         3.86267166183473   -2.09849351983796    0.89622096806324
