36
 energy: -50.518969693741 gnorm: 0.309059785610 xtb: 6.4.1 (79825abcba525fcdf90b791dcacef51065a7a4e7)
C         3.02044152127162   -0.46009174099315   -3.70024817188347
C         2.97441548907866   -0.73992049359209   -2.20525009777023
C         3.40570666198365    0.41343794686335   -1.22042864438982
O         4.80771416201535    0.69478981852276   -1.36980961305403
C         2.47977906123822    1.67933005431968   -1.41935469105005
C         2.83247875496419    2.59723760799407   -2.66784702533324
N         2.89502666720464    3.93064393802642   -2.05950387462792
C         2.19561808263632    3.97738212149338   -0.76689709507397
C         0.67565497043469    4.12575421839668   -0.85749282832171
C         2.53027651857834    2.59368103080207   -0.18439572720865
C         3.88686260019687    2.64560721448093    0.49925582309726
C         4.92962798169247    2.97719565466915    1.20829698259379
C         1.76346918606266    2.43292834667112   -3.73584812096507
C         0.88900426621831    2.58143982866260   -4.69151554031675
C         3.11501988926488   -0.25723729541356    0.16144937588006
C         4.30038284973456   -0.93898503941504    0.78463661398775
O         1.93728430104875   -0.36440949456485    0.54204692746548
H         2.88907544557948   -1.44075475145582   -4.18835060502690
H         3.97338807543152    0.01238291734454   -3.95885828555171
H         2.23605350782898    0.20446893800763   -4.05320682958030
H         3.64802920340709   -1.57445881654820   -1.95682200380537
H         1.97929995999330   -1.10064222674860   -1.91631741503567
H         4.96518215986484    1.58058052336084   -1.00114254075420
H         1.41642065992871    1.39182555196259   -1.46317402895101
H         3.82403046214219    2.34406972253200   -3.04129085174787
H         2.70689444891995    4.63805775422831   -2.76741045468412
H         2.59488526595095    4.85373834795037   -0.24250046194822
H         0.32014042118134    3.14359743263707   -1.18590448683987
H         0.46525157119742    4.94995344235429   -1.54842514354567
H         0.30576432655782    4.25581486778605    0.16613473813562
H         1.84296859577085    2.19331238627458    0.56837693460037
H         5.86565629034038    3.07464810720962    1.70888987022849
H         0.15957907125219    2.69754946169853   -5.45977278954739
H         4.19931180728605   -1.20557411363314    1.83525067379735
H         5.18566329137554   -0.29547264551106    0.76092833768347
H         4.49029476306136   -1.85530440468878    0.21878976735991
