36
 energy: -50.517277884469 gnorm: 0.300538372859 xtb: 6.4.1 (79825abcba525fcdf90b791dcacef51065a7a4e7)
C         3.28137699576630   -0.75570129455897   -3.61621775629760
C         2.90970626797186   -0.86879809388930   -2.14498978206347
C         3.34208091833082    0.35437412276101   -1.24887430743375
O         4.67640890949853    0.72295037067336   -1.63722845265401
C         2.39548231186534    1.61323638215009   -1.38530454424540
C         2.77213999203713    2.59069435656350   -2.58045698693329
N         2.91256089907966    3.90243637904187   -1.93891125949437
C         2.05501888807028    3.94994867416605   -0.74536469304675
C         0.61061804693833    4.38087675564693   -1.00712205384290
C         2.39474178838957    2.56216181290269   -0.17565528491520
C         3.81169714754880    2.66550951598015    0.36467643398581
C         4.91358353038397    2.48837530612965    1.03885727461086
C         1.73226914878612    2.65801898795069   -3.68704694898619
C         0.82524853496090    2.89806312010600   -4.59244034398206
C         3.22701086353526   -0.23817329411450    0.19318580725785
C         4.45763250845794   -0.77985850405819    0.86428577384066
O         2.11003256088555   -0.29830546327715    0.73369027975223
H         3.23379287397261   -1.70354701262030   -4.17882349238989
H         4.32364552546696   -0.42505080018677   -3.66686547872506
H         2.66955875647090   -0.04161071183677   -4.16141345255454
H         3.47640853037917   -1.68154494629787   -1.66518016753099
H         1.85505717980101   -1.04921746314315   -1.90204672091914
H         4.82604402926452    1.55990828248980   -1.16558500647108
H         1.36820445074675    1.21433718518223   -1.41513216776105
H         3.71768189367154    2.22667009405986   -2.98066432065007
H         2.72321194057264    4.65561968522289   -2.59756264663769
H         2.56787623328004    4.68496835848561   -0.11359751542007
H         0.22578612338899    3.63171348983097   -1.70679022801950
H         0.52682200792502    5.38738028064799   -1.43243404298116
H        -0.00551267401403    4.30496185281795   -0.10370182318309
H         1.71946620959967    2.22333940191459    0.61716006481469
H         5.95844390121411    2.67093797449291    1.14457819905719
H         0.28874510731954    2.95965584632469   -5.51120699977491
H         4.21689509124646   -1.81254527183514    1.11061590833968
H         4.68759408339783   -0.14953433296869    1.72927181899623
H         5.27212069958531   -0.73953254136922    0.13567533514303
