36
 energy: -50.516716847002 gnorm: 0.299567353820 xtb: 6.4.1 (79825abcba525fcdf90b791dcacef51065a7a4e7)
C         2.82255375148213   -0.74448133366141   -3.61949039012817
C         3.01873471582668   -0.94635259710527   -2.12409653105758
C         3.38210361237010    0.36487160442372   -1.32736872638342
O         4.72750407619231    0.78251747415270   -1.61471540121983
C         2.38934229965149    1.57935432011760   -1.52448049890073
C         2.79869367372199    2.54120081586497   -2.72154660726576
N         3.11550778664724    3.84904655322357   -2.13747945080804
C         2.36562523461202    3.97701304951546   -0.87911151428743
C         0.87780094377697    4.30287681625771   -1.02299140730273
C         2.43668156422455    2.54295438327653   -0.32742357709357
C         3.67509659266913    2.47969584272771    0.55162600683970
C         4.49813171414994    2.73449035705065    1.53026939228528
C         1.66208179623791    2.63262275912966   -3.72661418415452
C         0.57373013796997    2.83614960399456   -4.41517231432408
C         3.32946876297058   -0.11045354899436    0.16098154207847
C         4.55947255698790   -0.74975385925403    0.74116552432600
O         2.29580616116640   -0.07013784140928    0.84896247440722
H         2.73572223554253   -1.73102315022655   -4.10569662569194
H         3.71367233191380   -0.20300663146889   -3.95255412689061
H         1.90281723228814   -0.18081636232080   -3.75310103385502
H         3.80749952492466   -1.69505120218598   -1.95313854263906
H         2.09031038971925   -1.37055279299743   -1.72167928113228
H         4.93223324279408    1.62193446820954   -1.16884341306466
H         1.36923837151964    1.20880374495429   -1.71784623793884
H         3.68102263321825    2.12966807808342   -3.21028527595426
H         2.85415110275542    4.53923880322837   -2.83911120527259
H         2.84250228286600    4.71678134020807   -0.22509506645546
H         0.40547466497425    3.62320232915519   -1.73980884688690
H         0.69362556158411    5.36878794745946   -1.19870226199191
H         0.50012618230271    4.08312549578570   -0.01769573428710
H         1.58684578811785    2.23424747541706    0.29050289598164
H         5.46681740191691    2.64483133921065    1.96598550743930
H        -0.19700140641418    2.82717808223191   -5.15114389944654
H         5.02859750573530    0.04534718228168    1.31806336452051
H         5.20170318992029   -1.12392375654839   -0.06253121361514
H         4.39656856043650   -1.54997555159962    1.46848793882843
