36
 energy: -50.517251754086 gnorm: 0.300432015069 xtb: 6.4.1 (79825abcba525fcdf90b791dcacef51065a7a4e7)
C         3.22935677450524   -0.30543821148062   -3.77638439472916
C         3.18565696908349   -0.81118021659610   -2.34189593736343
C         3.49034584811356    0.35680806319444   -1.32745562772681
O         4.85457487706490    0.73246329220036   -1.58213365052398
C         2.45434983237877    1.54873980541527   -1.40099016511733
C         2.69760337178264    2.59767582772880   -2.56985518622998
N         2.80293104111746    3.89402033623782   -1.89135455845248
C         2.03270664396940    3.86102051734745   -0.63921458350561
C         0.55016095056216    4.16569773684581   -0.86223875393812
C         2.37560659770002    2.44270649816508   -0.15265751266027
C         3.67776649088880    2.43158109057251    0.63134339022948
C         4.78507097503889    2.66098419393138    1.28042035347644
C         1.61083994207041    2.46180203800669   -3.62384236285553
C         0.92488304596031    2.91914354960174   -4.63396449437925
C         3.22785685167969   -0.24103457026562    0.09295793021453
C         4.47200510825889   -0.79572694578983    0.72749648070388
O         2.10503197155465   -0.32127616858976    0.61853102056323
H         2.93594049839760   -1.11740510962979   -4.46327421002924
H         4.26786428783123   -0.02433780093569   -3.97813507329707
H         2.55903646400731    0.52496449197640   -3.98275130177208
H         4.01929857853669   -1.52452861179915   -2.25188536242218
H         2.27175831265799   -1.32690947407130   -2.02147471373192
H         4.98670704910981    1.62302989615488   -1.21502472050566
H         1.45864072781717    1.07968554831154   -1.46313160045930
H         3.65908481494439    2.52238118530491   -3.07642525375550
H         2.53249533495865    4.69922819974518   -2.45301691143905
H         2.39095451668658    4.59899035529066    0.08842910147628
H         0.18592753007462    3.55076820154674   -1.69174007534954
H         0.55396916255738    5.21214417640188   -1.18765658215189
H        -0.10372368274824    4.04743511389549    0.00953936503667
H         1.61613351341036    2.02483359874307    0.51662328916944
H         5.67018092454472    2.46978337238625    1.84279197806786
H         0.32231120828411    3.06635914423921   -5.50056506377690
H         4.07285733401543   -1.48855068235409    1.46624632346276
H         4.95981140740328    0.01650400481137    1.27587376575365
H         5.02707771632158   -1.27571499911358   -0.08330327383244
