36
 energy: -50.514141775451 gnorm: 0.306744747580 xtb: 6.4.1 (79825abcba525fcdf90b791dcacef51065a7a4e7)
C         3.17917699982985   -0.53617030095667   -3.66592539779796
C         2.74949151889503   -0.73491390055062   -2.21978807855526
C         3.25181920639778    0.38400459118442   -1.22892513188728
O         4.60243082637415    0.66494151387505   -1.63392055830220
C         2.38188536902068    1.69946363594646   -1.33928352948997
C         2.78056494662879    2.66104290269215   -2.54016004906024
N         2.84227056941929    4.00718209880712   -1.96044650976485
C         2.12107336704439    3.99348378430105   -0.67908938326783
C         0.60205592873548    4.02857986647419   -0.85759435017052
C         2.55954336592764    2.62683326678691   -0.12596800290607
C         3.95139153219172    2.69553209609789    0.48102518900613
C         5.24073856274204    2.66471591438851    0.67255719995787
C         1.72685351519647    2.47954526425727   -3.62051009787394
C         1.01888657669184    2.59965163163044   -4.70881249206546
C         3.15496561519154   -0.24138169523660    0.20055110629223
C         4.41208757357671   -0.77076634140126    0.83112540194131
O         2.06121402328986   -0.29680503649569    0.78709794870318
H         3.19320979233647   -1.44000530288769   -4.29844918387764
H         4.15922011300324   -0.04859086071071   -3.66657076751587
H         2.48068654959787    0.09973526013936   -4.20371762235493
H         3.16512814715674   -1.64613541404391   -1.76278948312596
H         1.65882813730523   -0.84523844803418   -2.17353806478026
H         4.84306706443773    1.28369548702215   -0.92358649441655
H         1.36071647028782    1.29828798412629   -1.44690439098464
H         3.74434321498080    2.41248441087378   -2.98296836797653
H         2.49914990492329    4.66515036726464   -2.65780276334871
H         2.48107534812426    4.84753027650752   -0.09307784672611
H         0.21993709715641    3.03704433461751   -1.12163838248698
H         0.37209444525603    4.65885712332658   -1.72409865598701
H         0.09865807223060    4.40994655875775    0.03833996598188
H         1.92169018175981    2.33148519096003    0.71383361095760
H         6.18366470417651    2.60721752691421    1.16634202204288
H         0.58594057633920    2.70636721418571   -5.67676462701589
H         4.78088416595080   -1.64440356993145    0.29650211220300
H         4.16741952572070   -0.96128108090271    1.88099845469357
H         5.26657044603014   -0.08875944530259    0.85594424497308
