36
 energy: -50.518984080796 gnorm: 0.300539143345 xtb: 6.4.1 (79825abcba525fcdf90b791dcacef51065a7a4e7)
C         3.05836849323538   -0.62600430080424   -3.56538984791402
C         2.85875109358766   -0.84569080394210   -2.07296479978536
C         3.39766773280528    0.37518748040635   -1.23323498181034
O         4.75606413531753    0.57310001196812   -1.66065565305210
C         2.45201586666456    1.63451715556158   -1.37189883324227
C         2.71658498283025    2.47396158597390   -2.69516023312453
N         2.99668352545891    3.86253780657603   -2.31388999076457
C         2.34600271249176    4.06233801110901   -1.01047774549571
C         0.85867990899769    4.42054078854657   -1.00202970781500
C         2.60351067013244    2.72387914035037   -0.29763111921800
C         3.92469755790125    2.75814886898806    0.45316334641511
C         5.11122842611879    2.89638697290203    0.97573832719249
C         1.54888983878513    2.40689118080095   -3.66593055522567
C         0.34953970041520    2.45554262502930   -4.17508389482161
C         3.19137925263787   -0.22841103534511    0.19400180803504
C         4.33912121131356   -0.77498265434776    0.99536036457251
O         2.02322270764649   -0.27476939084055    0.61431442190806
H         3.05458975957641   -1.59161020920619   -4.09904884485899
H         4.06380542917954   -0.20850215859297   -3.67943880078429
H         2.38257118471463    0.08966231138691   -4.02648047716920
H         3.43659930767728   -1.71944247086666   -1.73447456584376
H         1.80235022295374   -1.00288770480577   -1.82164125558704
H         5.19339209289309    1.21987405521044   -1.08120388925169
H         1.46113538630331    1.15133992526377   -1.36951070693051
H         3.60364747671298    2.12561822839621   -3.22289702371155
H         2.62966317398093    4.51071485444561   -3.00824030032197
H         2.84156797344119    4.83823494071919   -0.41482232463758
H         0.20138273078300    3.58292891743326   -1.25745784166121
H         0.61501493516599    5.15642214924099   -1.77666989280042
H         0.62457298686180    4.78720453435242    0.00410144685105
H         1.89518846304557    2.58364921908049    0.52575769121994
H         6.01150990212273    2.73282831214859    1.52252990684562
H        -0.32376085427681    2.34570092653374   -4.99384085831673
H         4.35770673274500   -0.18723422500181    1.91148337131328
H         5.27261822966014   -0.70072326211304    0.42838540533611
H         4.17876789879820   -1.79322349161490    1.36054905348764
