36
 energy: -50.517173491355 gnorm: 0.314261594066 xtb: 6.4.1 (79825abcba525fcdf90b791dcacef51065a7a4e7)
C         3.33928913293398   -0.32497434936618   -3.81731014534391
C         3.04349820988894   -0.60397486009589   -2.35098541079625
C         3.44392620452997    0.48099190362151   -1.27924587102309
O         4.81021978872210    0.88218192344509   -1.47770750059349
C         2.46601417535535    1.72196229144391   -1.33471615087301
C         2.83341479758231    2.70589889451497   -2.52743156628124
N         2.91219228664459    4.00686161594534   -1.85418851397459
C         2.06321406679258    3.93636627982255   -0.65566628955179
C         0.56622340744813    3.99548189802267   -0.96555990400951
C         2.41636097449792    2.56677441174500   -0.05115141344691
C         3.82434897953645    2.63443314719394    0.51752574065913
C         4.84353581780381    2.46297766889071    1.31245413859043
C         1.73359722207202    2.59431893888324   -3.57067486109642
C         0.75111209802878    2.58277583957662   -4.42778310643803
C         3.16387220756923   -0.24477061075636    0.07675174081689
C         4.31419720610203   -1.04364982656015    0.62151966702273
O         1.98521141724166   -0.38196128605056    0.44463619746893
H         3.44692259399538   -1.26215399666556   -4.38942055388466
H         4.32689413463051    0.14692629699360   -3.83014654137968
H         2.57482498687276    0.32247307203686   -4.23908221119351
H         3.48967493871803   -1.55971880086807   -2.03569821599847
H         1.97743029626895   -0.79136482862209   -2.17142652489027
H         4.95731799401284    1.74682535727251   -1.05807598897485
H         1.50843961104300    1.23689468369158   -1.58585447153325
H         3.79998810587344    2.54138930986210   -3.00219646472945
H         2.81008252646807    4.82586293116391   -2.45065327620686
H         2.33474195062367    4.77617123683178   -0.00496927439598
H         0.30458194838642    3.00390885604667   -1.34923087673671
H         0.38674291707359    4.73825856393101   -1.75107310920640
H        -0.02177802102781    4.27725100447712   -0.08441930971837
H         1.79529842281810    2.08446019651599    0.71108754801994
H         5.80515469980543    2.36280301379658    1.76133430270055
H         0.00580834198742    2.55641415833828   -5.18909062580297
H         4.05096915377425   -1.55526233033787    1.54566177723007
H         5.11441545611269   -0.31835788212336    0.80038861398673
H         4.72747378329202   -1.72133256397492   -0.13070300634221
