36
 energy: -50.517788663270 gnorm: 0.308675622216 xtb: 6.4.1 (79825abcba525fcdf90b791dcacef51065a7a4e7)
C         3.35773584889649   -0.19046782837896   -3.80120797022009
C         3.12205725242636   -0.60222446804832   -2.35540236746814
C         3.44919692811756    0.51736846444089   -1.29445356537700
O         4.81188294012634    0.90451825150906   -1.54001507078247
C         2.38959151278205    1.68692428758677   -1.38811181798923
C         2.85307001028436    2.74593977162879   -2.47868889298390
N         2.79356899428540    4.01494456191615   -1.74516824091753
C         1.88184714981584    3.88048673034396   -0.59936132932675
C         0.38359069919557    3.92081895102991   -0.90613587391728
C         2.33234436469032    2.50229806825355   -0.08595986953280
C         3.69269879904310    2.45003860495456    0.59013648110146
C         4.74070150121305    2.36804145126549    1.36150972146565
C         2.00090748436708    2.67424696418945   -3.73530517277841
C         1.09922120748332    2.74726456352778   -4.67428070937710
C         3.27107390092618   -0.22536535229000    0.06955141835186
C         4.30256987872253   -1.25211139117130    0.44376563852754
O         2.23838542513148   -0.09194669187175    0.74716152749606
H         3.34298785312286   -1.11608620980350   -4.40138634377599
H         4.32549222071795    0.29421717650829   -3.96475208986113
H         2.65227565025463    0.53417278345617   -4.19958863937657
H         3.84414707853453   -1.42695123220860   -2.25372537596874
H         2.08556401198222   -0.94645682200191   -2.25031655824466
H         4.99564487184477    1.55052823644079   -0.83699344464923
H         1.41631259043838    1.27883887221454   -1.70670949850392
H         3.90284266819190    2.60167313086493   -2.73146065199510
H         2.44595855849302    4.72288526264840   -2.38933182325911
H         2.14615550335174    4.69455546059436    0.08608709091470
H        -0.01069305658057    3.24922059860963   -1.67579341115611
H         0.18499491355704    4.95350782248380   -1.21447792495512
H        -0.10764200742354    3.72824510131277    0.05467315580903
H         1.70587169717111    2.07878846987808    0.70620521353125
H         5.56795688190367    2.22720991244997    2.01881802049680
H         0.41065520369056    2.85093130001657   -5.48105937396943
H         5.19997485028496   -1.10919122208620   -0.15566170423265
H         3.86603950268526   -2.24904557752645    0.32563349756767
H         4.59430970283675   -1.05854964861126    1.47977340612403
