36
 energy: -50.518334765568 gnorm: 0.311771778581 xtb: 6.4.1 (79825abcba525fcdf90b791dcacef51065a7a4e7)
C         3.31095297703757   -0.49303856005937   -3.68934086536961
C         2.89315564139969   -0.75758364721882   -2.25027761023250
C         3.33832197434852    0.35514069161933   -1.22568377187242
O         4.70243339187394    0.68854582788729   -1.53413089201589
C         2.40970615187134    1.63137476078822   -1.31676377101986
C         2.70476215564394    2.49291113771762   -2.61921587157254
N         2.91781225447579    3.83577331685315   -2.06849190504660
C         2.25547225877216    3.96169475437461   -0.76172542750293
C         0.79053682446314    4.39435946802842   -0.84701981940514
C         2.45967520473460    2.58325300558057   -0.11047101433078
C         3.82684607397896    2.61122348839009    0.55320287107907
C         5.07993158461031    2.74110377712625    0.88929468467647
C         1.56778808184456    2.32888619922813   -3.61460077327497
C         0.77040238913160    2.39314825977715   -4.64420808527183
C         3.09297849085232   -0.24383318253149    0.19731580758892
C         4.32327750809154   -0.83356834273181    0.82723995482748
O         1.94678187410269   -0.20880577369441    0.67523617924031
H         3.20144588956310   -1.44379543874625   -4.23822202431331
H         4.35343608850353   -0.16832849765720   -3.76687127926635
H         2.65600449535590    0.24407863895672   -4.14670941310990
H         3.38519131071741   -1.65958499666093   -1.85503005447894
H         1.81734088786169   -0.97317495235200   -2.25070048622037
H         4.91099492248790    1.57508833360691   -1.19371757990988
H         1.37645342345106    1.25016969709192   -1.36556495756897
H         3.60652271795327    2.29425309789831   -3.19722272983231
H         2.86171759732035    4.59680810142339   -2.74276129064231
H         2.69852498659109    4.80869312619918   -0.22441324322772
H         0.20446252840372    3.65916589556109   -1.40816515561112
H         0.72754565166565    5.40918932918152   -1.25581546176880
H         0.38230663345571    4.45348406916707    0.16855915067709
H         1.79821064956586    2.32619756188554    0.72363991365656
H         6.05341003061556    2.98371040085171    1.24946263377233
H        -0.03867102854413    2.57938573327743   -5.31239785842499
H         5.08063707863862   -0.05647626442084    0.74000818778798
H         4.70906747745149   -1.71793361751008    0.31007856566856
H         4.11187984396206   -1.16904348853202    1.84638558626846
