36
 energy: -50.520495853244 gnorm: 0.304087540869 xtb: 6.4.1 (79825abcba525fcdf90b791dcacef51065a7a4e7)
C         3.00523083982522   -0.30800346714885   -3.83176235815177
C         3.28358024039486   -0.70602570033457   -2.38970075097713
C         3.51830285762645    0.42340689983179   -1.31480152120367
O         4.85386044993163    0.92833705003524   -1.48341366486721
C         2.46097353041121    1.58866996781935   -1.46846682808294
C         2.82222362830178    2.63579771956611   -2.60807479999052
N         2.98837395010393    3.93115921144174   -1.93994399650100
C         2.14369040368091    3.86106150851180   -0.73836789109977
C         0.67608498914352    4.21012118296297   -0.99292910743370
C         2.32360341373143    2.43451416263908   -0.19199183490690
C         3.52149052667606    2.21618866248467    0.71784442068736
C         4.36776918296681    2.47963715645020    1.67411699634908
C         1.67748471828217    2.58200422916456   -3.60661596257176
C         0.80781440704273    2.74748892333819   -4.56386889332965
C         3.34672717005437   -0.15882476068006    0.12584382874820
C         4.47943655339986   -0.94351516526801    0.72539206905972
O         2.20252106192234   -0.23785469249375    0.60328298546810
H         3.00422595101724   -1.24217040697100   -4.41873091750506
H         3.76033112956144    0.33720758903168   -4.29191980034827
H         2.04910335055538    0.19085537176826   -3.96757600912202
H         4.26960101890101   -1.19486077075092   -2.41670938088513
H         2.55286297229873   -1.43525295812240   -2.01803281145559
H         4.94941585408656    1.69591959170993   -0.89432711647480
H         1.49030775296498    1.11663836387934   -1.69275276424349
H         3.76878723802669    2.41831827506135   -3.10148040462029
H         2.77220575000214    4.69472256814798   -2.57806787186121
H         2.53266577478289    4.62623901572156   -0.05601322198094
H         0.23871449893598    3.48254452481735   -1.68446075616732
H         0.62183801078466    5.17870602260118   -1.50269580654887
H         0.11298278384316    4.23536131224279   -0.05280832041329
H         1.43179529001526    2.10125299966779    0.34927444330919
H         5.11308760212333    2.42750485947474    2.43439450775146
H         0.08811282313072    2.93047319047536   -5.32826941657150
H         5.19615699428688   -0.31635879339153    1.25270762107476
H         5.09898422586681   -1.33201269962229   -0.08923796516698
H         4.13884326407064   -1.79222295155363    1.32504335855762
