36
 energy: -50.519030439685 gnorm: 0.310823664538 xtb: 6.4.1 (79825abcba525fcdf90b791dcacef51065a7a4e7)
C         2.93746147198090   -0.65894894381648   -3.61245588868154
C         2.97250315897630   -0.83647009069116   -2.10159517207373
C         3.42431917404839    0.39607948341854   -1.22820812594546
O         4.77457417372157    0.70202225785027   -1.61590524640238
C         2.39499851428796    1.58885259180004   -1.35930986062741
C         2.72804014271436    2.45232201931653   -2.65128057931244
N         3.08140078894952    3.79065810749852   -2.16552458597527
C         2.34415241635418    3.99390350300449   -0.90960051339962
C         0.88419610473486    4.36918208696391   -1.17075808838629
C         2.44576633430313    2.62186665106896   -0.22176165144271
C         3.70795880323732    2.48560070230432    0.61412309660800
C         4.75126530919325    2.48469432854141    1.39614649101032
C         1.50873175822446    2.57286732673554   -3.55081451087970
C         0.62380795268647    2.74386341967444   -4.49300080974921
C         3.27591200565710   -0.13773403857934    0.23360903869885
C         4.55822971128771   -0.69440154882777    0.78498030990551
O         2.13366696074845   -0.10483201334502    0.72104644467424
H         2.68319559663484   -1.56940817906107   -4.18132653899208
H         3.86819787457533   -0.25626174416675   -4.02451340695760
H         2.19186266284226    0.09894967366162   -3.83863584429310
H         3.70769232525007   -1.64967107323646   -2.00096106825719
H         1.99265138961443   -1.06144668298016   -1.66212590700460
H         4.99086030161145    1.58208786030976   -1.26370984376264
H         1.38921690252166    1.16382992582350   -1.51119518493807
H         3.57460600696707    2.02871786494811   -3.19036762233487
H         2.79159297415994    4.51777955283411   -2.81688133381338
H         2.78337264133679    4.75906078110979   -0.25842750662698
H         0.41201174281191    3.61297745212503   -1.80642564257531
H         0.79618166913126    5.36555264675457   -1.61848633171712
H         0.34450386313510    4.43968476009372   -0.21928033694799
H         1.61858954318879    2.44502100596759    0.47383743399881
H         5.66844544983659    2.42828599856059    1.93636671763492
H        -0.18512475907396    2.58273406527511   -5.16785412046812
H         4.52465112537464   -0.74585757109213    1.87185645678033
H         5.34216144298932   -0.00842949767855    0.44840173539234
H         4.59302204191240   -1.70392296799551    0.36599776415851
