36
 energy: -50.516041078048 gnorm: 0.307290264684 xtb: 6.4.1 (79825abcba525fcdf90b791dcacef51065a7a4e7)
C         3.14413199135943   -0.86826034280382   -3.44836901763732
C         2.95990259373096   -0.99451032794303   -1.94319053985357
C         3.41063746271839    0.34153879592979   -1.23754765397498
O         4.73799783752324    0.71431778493438   -1.64528388640545
C         2.38714900283696    1.52191331216444   -1.47958838325944
C         2.62978374862880    2.34407372318748   -2.81782047633841
N         3.11269701069777    3.63179847071183   -2.30740314464760
C         2.45255130546422    4.01839382469368   -1.05164010898511
C         1.03533706699610    4.56530105163539   -1.23304022630046
C         2.49669317745866    2.62106019472493   -0.41020185675707
C         3.80562335258964    2.53836695242537    0.35808531739151
C         4.93755046269129    2.74048194417462    0.97285392190292
C         1.26197243558558    2.37750398158568   -3.47992319474541
C         0.17444313188127    2.71248435904848   -4.11640804519214
C         3.24738149943543   -0.04538063145226    0.26828493408187
C         4.45237966063699   -0.55679456969019    1.00629772493903
O         2.12230683012214   -0.04915421268186    0.79515705976551
H         3.19554998139372   -1.83086100612166   -3.98498538333328
H         4.11956134653306   -0.38687211489150   -3.57093157108209
H         2.41875618564400   -0.18067488669290   -3.87561771575308
H         3.58512745834105   -1.79698701361358   -1.52241601383147
H         1.89919976594750   -1.16264411654773   -1.71847355961036
H         4.82877836566848    1.61123088853172   -1.28108265637123
H         1.36876462856071    1.10002953599069   -1.46484364032734
H         3.46756238764106    1.96279835802406   -3.40047398463786
H         2.96497502948201    4.28304847700879   -3.07617581689753
H         3.03866080821524    4.76033930253293   -0.49630336104939
H         0.28664004294394    3.82700653894704   -1.53841005913771
H         0.97608175982979    5.44621080969315   -1.88223065772272
H         0.69908408278312    4.93455962881255   -0.25726858983503
H         1.65421539401037    2.51415141170433    0.28128610827233
H         5.82927974949698    2.56353191468729    1.52940291042627
H        -0.80249118821145    3.04381929075610   -4.38394921821718
H         4.31348652696523   -0.45895427284840    2.08157023410658
H         5.34631987537191   -0.07978466676583    0.59190155187736
H         4.46614028777287   -1.63918097634248    0.85092500853938
