36
 energy: -50.493993044034 gnorm: 0.307970875198 xtb: 6.4.1 (79825abcba525fcdf90b791dcacef51065a7a4e7)
C         1.65142772228242   -1.23136294690171   -3.05437176844889
C         2.20565992117172   -0.84082886010105   -1.69211204139646
C         3.29902954780986    0.29257267062513   -1.61423464523375
O         4.25010770868676    0.25762416755301   -2.69188372183926
C         2.61219286885578    1.71598967611246   -1.57504604673294
C         3.52241266042030    2.97743045593628   -1.90054816099805
N         2.90828487579460    4.19595072386568   -1.36201166696440
C         1.74059268623733    3.78327365284524   -0.56930635143137
C         0.42836595762968    4.20731868232188   -1.23169336380645
C         1.84017906488207    2.26228174090415   -0.36291114899032
C         2.48497618340769    1.96250277851045    0.98050643854660
C         3.05687038395134    1.92989008017547    2.15179775247071
C         3.43721000286783    3.07996623063471   -3.41469227270736
C         2.78931425804720    3.06410652718174   -4.54607393104575
C         4.15401313716774    0.08719853809913   -0.32167304846396
C         5.56772972407723    0.56209447624468   -0.13699241927301
O         3.75445998557541   -0.72053508177517    0.53350247951975
H         0.77027459402884   -1.89265272029770   -2.99549928944562
H         2.39311992499230   -1.79275192120186   -3.63139319318644
H         1.46059567774625   -0.37028778885614   -3.68968111736261
H         2.79810415408316   -1.65746370008954   -1.25160830873852
H         1.34426791085241   -0.66218853311894   -1.03640737080190
H         3.85832657375474    0.70180435877318   -3.46295327421086
H         1.93994296577907    1.81172792832123   -2.44350695020453
H         4.52689578801080    2.80128829398889   -1.51751201988291
H         2.67696644671039    4.79981067744337   -2.14865308619377
H         1.88610634432770    4.24355307856017    0.41526207501513
H         0.42951922052905    3.79155357100033   -2.24461725295966
H         0.34024846292363    5.29930576134840   -1.20410820128192
H        -0.50045578324000    3.90337722056107   -0.73524798588613
H         0.83204207569808    1.83619774006395   -0.32462079385087
H         3.62031040728708    1.60791558301755    2.99743773546224
H         2.50655930590509    3.06642864453444   -5.57359817153653
H         5.68793742422423    1.18726357870675    0.74606403397509
H         5.92468635800685    1.14549283922597   -0.99175557759044
H         6.11477744880192   -0.38317929766309   -0.08143476712504
