36
 energy: -50.506604359373 gnorm: 0.307150307009 xtb: 6.4.1 (79825abcba525fcdf90b791dcacef51065a7a4e7)
C         3.56671064276977   -0.16902019504762   -3.88672070049190
C         3.14792447369140   -0.64435019101174   -2.50320296799110
C         3.42205143538009    0.38552288456932   -1.34116298232290
O         4.70853126993244    1.01696946556215   -1.45667686647363
C         2.41085665452487    1.59827252363818   -1.41939211409974
C         2.83810147440015    2.63549309568916   -2.54514513968752
N         3.02850687140322    3.90505387032398   -1.83526673858374
C         2.07924308330223    3.85739591528531   -0.71329699397740
C         0.60361690523120    4.02604995546711   -1.08016607458862
C         2.27477707063503    2.44276326793954   -0.14188317726848
C         3.46018876492989    2.32189977153699    0.80182899788486
C         4.47746294759578    2.50126648676884    1.59746126712619
C         1.65337976017493    2.66233367841967   -3.49704820958291
C         0.61568594190986    3.05329642306894   -4.18289404632217
C         3.22398396071937   -0.35428603234347    0.02168073443488
C         4.49458032097733   -0.73195865851825    0.72961854707640
O         2.10060739448673   -0.80283100309903    0.30493679243076
H         3.50210668032314   -1.00158982910333   -4.60773048142638
H         4.57699918826400    0.23956939932027   -3.78381186079520
H         2.91524666173302    0.64626665648126   -4.19067349353591
H         3.68270106723380   -1.57417959686510   -2.25549864051316
H         2.06382990175417   -0.80334284416144   -2.56080053678833
H         5.37701796253299    0.34303780959843   -1.66710124682611
H         1.41017090672304    1.25353291228108   -1.72776317241316
H         3.80731012115580    2.38565890587167   -2.97519927491763
H         2.94275856362420    4.75162284528080   -2.39466639296111
H         2.46018724606202    4.56384377270060    0.03384377235761
H         0.28991533466964    3.32569751944307   -1.86117474927045
H         0.44066536633466    5.04917075471966   -1.43742234184086
H        -0.06138758644225    3.90201033890551   -0.21765146496196
H         1.42179812480346    2.10301556235421    0.45506935804341
H         5.21317039165678    2.36728021326039    2.35708053890437
H        -0.09590849544319    3.50763228198374   -4.83325861848417
H         5.20036833523890    0.09558841784372    0.68374795248772
H         4.98176799343449   -1.60077989688013    0.27553752950291
H         4.40769886014216   -1.00232723924361    1.78566911675853
