36
 energy: -50.513925953649 gnorm: 0.302694834461 xtb: 6.4.1 (79825abcba525fcdf90b791dcacef51065a7a4e7)
C         3.27261376058675   -0.42361261667381   -3.74387544578975
C         3.04910812373672   -0.78893033123427   -2.28372820146672
C         3.36357655654648    0.38033130492072   -1.27374904167808
O         4.74084842891468    0.76485413938044   -1.42329160202028
C         2.38268410669417    1.61764506808719   -1.35312789535023
C         2.80524573394744    2.50273044613156   -2.60362781490370
N         3.00158478155734    3.85246774232411   -2.06360344785817
C         2.22716156394492    4.01115285951386   -0.82373376150438
C         0.73673946781238    4.29198901341624   -1.02443941103743
C         2.39876743410528    2.62093970272924   -0.18828775104390
C         3.68082914430524    2.54207228855063    0.62442332566041
C         4.88908297404466    2.85689770951535    0.99999963932680
C         1.77787905816329    2.51008792164525   -3.72383716178023
C         0.58945042086817    2.52263731738848   -4.26005047770787
C         3.18517195442087   -0.29708992109829    0.12380712452893
C         4.34038900698162   -0.94369420291438    0.83486558585395
O         2.05558686357729   -0.27075585590409    0.64028126769894
H         3.50676805805467   -1.32065735502034   -4.34194189151180
H         4.18146427795452    0.18328171482020   -3.80623439480981
H         2.41231015492295    0.15674480607785   -4.06721464509491
H         3.77708270493317   -1.48628266898267   -1.84137212118033
H         2.01630078080112   -1.13856493320967   -2.16157330349847
H         4.90523425138103    1.59239277279810   -0.94007957255968
H         1.33612639280754    1.27726652663497   -1.41769931442509
H         3.73038713722210    2.21549652404063   -3.10196418462660
H         2.88783512825109    4.60941512407735   -2.73520708772957
H         2.66442879397435    4.85658993495175   -0.27927083934493
H         0.25634361824547    3.74505167331019   -1.84233679632432
H         0.59320701848282    5.35619948228743   -1.24310794712719
H         0.15437321847534    4.14902858722354   -0.10685556153197
H         1.57363820777568    2.31482845320436    0.46348796697494
H         5.81356438203986    2.59036090167929    1.45883674560426
H        -0.22615153604369    2.47708773999976   -4.94450681388038
H         3.92425012298794   -1.45304263706071    1.70231449015070
H         5.16514541674753   -0.26471709598176    1.07394442987453
H         4.71763043951169   -1.69937533158076    0.14022517209286
