36
 energy: -50.500399560743 gnorm: 0.303807828169 xtb: 6.4.1 (79825abcba525fcdf90b791dcacef51065a7a4e7)
C         1.12049783227013   -0.79580802305856   -2.79976640168351
C         2.26131966104112   -0.96087292852385   -1.80642813589791
C         3.28544642293200    0.23217240822208   -1.68841000037385
O         4.18816856842660    0.07847521089924   -2.79681809455478
C         2.47528918599161    1.58974286808170   -1.68177260759307
C         3.29382958838676    2.91805851230750   -1.98385484436582
N         2.32931565062529    3.98946803070931   -1.71226573457955
C         1.54581555867790    3.51011814518191   -0.56398857321298
C         0.11167818765308    4.01924645596107   -0.72066693838062
C         1.75716190926661    1.99711808457034   -0.38483389485484
C         2.62728945248398    1.94666603556890    0.86045091616243
C         3.45057736045566    2.18414481556654    1.84322799520582
C         3.79311511068267    3.07812755674622   -3.41056339713792
C         4.65156350462259    3.09916874778645   -4.39172010125576
C         4.11034956295802    0.12154392580813   -0.36508573680371
C         5.43429998396601    0.83233629964678   -0.37762216466341
O         3.69359124134811   -0.51865931490447    0.61463555418671
H         0.67155170123576   -1.80116960944580   -2.86974087122604
H         1.49984639723642   -0.46412212024685   -3.77151624504168
H         0.31303466837373   -0.19922695735441   -2.38313762254881
H         2.86078342777199   -1.81021039237329   -2.16863696307099
H         1.86695125093490   -1.10136209486832   -0.79223213002526
H         4.40335181040419    0.92866656187624   -3.21658897497207
H         1.68676440328427    1.51895131240445   -2.44892793953732
H         4.12087482849772    3.12793699528287   -1.30659840676645
H         1.64891254403231    3.90496027582341   -2.46517332537688
H         1.88793225353435    3.96032569885961    0.37551964781829
H        -0.41588702276676    3.44065368196225   -1.48603097983664
H         0.11292830031582    5.07214296332089   -1.02458929781102
H        -0.38102319146976    3.95903053772319    0.25665985034236
H         0.84506780340489    1.41982470081175   -0.19998093077381
H         4.10099831181702    1.99925016459546    2.66724606988818
H         5.08586995748462    3.38918988750920   -5.32071280847145
H         5.62514870025625    1.24634457251307   -1.36618117424237
H         6.28254242018175    0.16010330051231   -0.21336836530066
H         5.52534670264696    1.56026634044964    0.43337642800063
