36
 energy: -50.513992277911 gnorm: 0.292036232763 xtb: 6.4.1 (79825abcba525fcdf90b791dcacef51065a7a4e7)
C         3.47921977757708   -0.51824475399525   -3.85558958978037
C         3.14547393473201   -0.80091292138670   -2.39814175737040
C         3.36567276205947    0.33502450261645   -1.32703032261520
O         4.72864065835359    0.73426618047638   -1.55068896635972
C         2.41535790866849    1.59442559514490   -1.42805961476992
C         2.87984371593238    2.71803777605993   -2.45150140883505
N         2.81212699293351    3.96278715551703   -1.67821003880850
C         1.90496904062916    3.79608584624187   -0.53301823922228
C         0.42864942611033    4.00664424411560   -0.87456660324762
C         2.37953801946643    2.39386216657000   -0.11530316924296
C         3.72843044326444    2.43333974823843    0.58421978598938
C         4.92182935805087    2.86420091843269    0.88456563097614
C         1.93146501862626    2.81136594928115   -3.63567754067301
C         1.08006383809443    3.43501366140404   -4.40133046790646
C         3.09252649032500   -0.35475421993950    0.04901014464604
C         4.32715982219219   -0.84184603753257    0.75374396839134
O         1.93517090292845   -0.68224052498668    0.35994784388440
H         3.46981829522643   -1.51562012536037   -4.32713487078252
H         4.44748800479585   -0.02231731784687   -3.97696192545984
H         2.76402730836729    0.16787419060301   -4.30193675524850
H         3.65908132598231   -1.71436133375792   -2.06087983213279
H         2.07972751580367   -1.05933649654840   -2.36265926637964
H         4.78011723313835    1.50666972929497   -0.96240359380689
H         1.38478373267682    1.23644951178392   -1.58642647600496
H         3.90112993990692    2.53414934144391   -2.78299586471985
H         2.71463720019039    4.82194340261387   -2.21608182358041
H         2.24291604157559    4.48028610803148    0.25442584625917
H         0.00118357339098    3.10488913740504   -1.32510787038908
H         0.40570814325596    4.76000061144356   -1.67011000059013
H        -0.23679538788358    4.26689289023092   -0.04330124686694
H         1.72263137806864    1.92540860379615    0.62522289503743
H         5.73557874400951    2.82018557401454    1.57167102925321
H         0.37530453865302    3.61036600080103   -5.18128411181412
H         5.14467240223677   -0.78782104149338    0.03692496795511
H         4.22024338651314   -1.83554762884597    1.20041808169899
H         4.62605545520069   -0.16560177395253    1.55950166242580
