36
 energy: -50.517902386018 gnorm: 0.299007152860 xtb: 6.4.1 (79825abcba525fcdf90b791dcacef51065a7a4e7)
C         3.41712890521122   -0.46210986635706   -3.62216148951911
C         2.89304109276636   -0.75414128589773   -2.22377263042571
C         3.37808127538308    0.37876749893307   -1.24022050307800
O         4.77701493980039    0.67733721088004   -1.38492474959351
C         2.47707329796045    1.67576674274683   -1.31352760225271
C         2.67350368119861    2.54781801897684   -2.62753908252267
N         2.97779909804298    3.87840706818388   -2.09004194518059
C         2.28982944581030    4.05913004053334   -0.80309746559900
C         0.79514088511916    4.36963647747276   -0.90310543354132
C         2.57074086563934    2.68964895395345   -0.16158116019821
C         3.93409904586240    2.79852809763208    0.50159408991482
C         5.08873192441979    3.32115689689112    0.80775090429399
C         1.43271711291915    2.38771609151050   -3.49080117490116
C         0.53346310406952    2.19330842548665   -4.41470197763113
C         3.05975255676502   -0.35453842430399    0.10321547056486
C         4.19867301724838   -1.18204703848371    0.62887444730487
O         1.95025356002523   -0.26371650687469    0.65472689830337
H         3.31892732629364   -1.39612108103133   -4.20110922019748
H         4.49030511659945   -0.25171859370143   -3.57475933472167
H         2.89995202509473    0.35424334011527   -4.11973639528168
H         3.25870551968902   -1.73787256335550   -1.89137457595437
H         1.79614623168379   -0.75799103501549   -2.19800385718574
H         4.90854850214089    1.42275500621750   -0.77468873834744
H         1.42653567184650    1.35200283922755   -1.39633888171605
H         3.49368380208101    2.22812944264899   -3.26928113035403
H         2.78118979400832    4.61001757710478   -2.77052017169205
H         2.76073853831619    4.88722107493764   -0.26003556959447
H         0.33696640496598    3.54736465076622   -1.46241031691567
H         0.70289439259178    5.35941428642407   -1.36439914742289
H         0.41692144965957    4.44691491971702    0.12282163875473
H         1.90950200501713    2.29899529065435    0.61912801146511
H         6.07026760262710    3.18583651899302    1.20083530705358
H        -0.39738065039500    2.20373777416291   -4.93353038543980
H         4.35716420853460   -0.97473903564128    1.68574668852439
H         5.14199465425386   -0.94057828889591    0.12864562164702
H         3.94687573987340   -2.24260542847424    0.54109972391847
