36
 energy: -50.520376844352 gnorm: 0.315454648409 xtb: 6.4.1 (79825abcba525fcdf90b791dcacef51065a7a4e7)
C         3.35226708331313   -0.63854942177274   -3.59022412305651
C         3.00144854409493   -0.89046163149702   -2.13114620497495
C         3.39607259056868    0.37511005359562   -1.27749450094490
O         4.75716246962091    0.70421271289302   -1.60341528232498
C         2.36915610939323    1.55387878289478   -1.51274572534613
C         2.73817611589910    2.57106958262321   -2.67671804806163
N         3.03350909493633    3.86273140536494   -2.04715134272923
C         2.18430783298464    3.94787946244977   -0.84973907457341
C         0.70899509549944    4.32974580725091   -0.98442438846922
C         2.39175325497388    2.51993345043790   -0.31694511839591
C         3.71989892527191    2.49672392340974    0.42189989746579
C         4.71961077776623    2.56864130655707    1.25583874524960
C         1.54913622696033    2.69806318057484   -3.61504745816478
C         0.59611960253859    2.84158062166341   -4.49323128158208
C         3.20669377882180   -0.14179918127598    0.18566353579278
C         4.42704012453199   -0.85596402169321    0.69453586137655
O         2.15576077859350   -0.04106380809307    0.84048694394872
H         3.27928813363454   -1.54692469661161   -4.21209983818950
H         4.35482480290008   -0.19912603671269   -3.59215782420023
H         2.63106328530236    0.06254135038455   -4.00231886975853
H         3.70720990634992   -1.68448939814939   -1.84244745240737
H         1.98323114415187   -1.23911399431395   -1.91776384507407
H         4.94534204272372    1.51596118645721   -1.10242664214723
H         1.36036939024901    1.12338145175589   -1.62379280004664
H         3.60414147008643    2.19923428089421   -3.22313507690501
H         2.96641422667590    4.71700829864954   -2.59730498403938
H         2.67343390703946    4.61866433791419   -0.13335252494145
H         0.15713814504022    3.60706123719644   -1.59438969563199
H         0.60918476299366    5.32212326442013   -1.43850179491227
H         0.29767901902456    4.41177901842420    0.02831343015353
H         1.70008565088452    2.16307690079420    0.45351139650977
H         5.47947013369433    2.61523569214503    2.00194994954924
H        -0.16825205388866    2.99681924787443   -5.21945348515251
H         4.15886796402930   -1.81950561253359    1.12435709242175
H         4.95439499270982   -0.28283827810351    1.46383129715950
H         5.13330553283236   -1.04991416810186   -0.11753733628467
