36
 energy: -50.516807639711 gnorm: 0.308038357830 xtb: 6.4.1 (79825abcba525fcdf90b791dcacef51065a7a4e7)
C         3.21641827296672   -0.68320642342957   -3.51337134754252
C         2.81213286237590   -0.89309692101835   -2.06149632890225
C         3.27115959484485    0.35438630106951   -1.21343905371116
O         4.62051576341374    0.65674493238697   -1.60703247970432
C         2.37132022531462    1.65089435401965   -1.30699288032364
C         2.76067210179281    2.44408695939190   -2.62795280370678
N         2.92001243917530    3.84451253200282   -2.22127727848505
C         2.21083898092024    4.05390780340974   -0.95028721179567
C         0.72578927497013    4.40148735124188   -0.83059781814316
C         2.56036629786470    2.73738467737329   -0.23577315424474
C         3.99784496525725    2.81279854203808    0.25245771916663
C         5.20091204174513    2.78721713637728    0.75447873372331
C         1.61755618305318    2.32208477519970   -3.62234048233029
C         0.62780613980809    2.54439567987609   -4.44149708445121
C         3.18647438436581   -0.19564305700239    0.24744666172217
C         4.38390441247166   -0.78330853008939    0.93957258126736
O         2.04342359619999   -0.35167982416577    0.70841187123172
H         3.01239377336846   -1.57076578595053   -4.13611796863713
H         4.28801620663565   -0.45990261875062   -3.51902041430604
H         2.73351459325314    0.17822191546374   -3.96749745618030
H         3.37435297473472   -1.74733048716754   -1.65391845060817
H         1.72418757045363   -1.00189306030589   -1.96986868788691
H         4.89009778196778    1.47716708749858   -1.16030014682728
H         1.31975486921343    1.35223909745193   -1.44956006687714
H         3.71769876043216    2.17165686036438   -3.07136107105341
H         2.57591042100237    4.55236534806401   -2.86741810323874
H         2.72178938512354    4.88367392779300   -0.44747092194476
H         0.11549988662838    3.52977475016578   -1.08855278361306
H         0.45373934059348    5.19364716788414   -1.53730360620661
H         0.60075809027910    4.76950351239350    0.19433123438319
H         1.88461672383508    2.51425431296663    0.59665057130177
H         6.25336361360662    2.95050894405986    0.79830437493418
H        -0.14777147337691    2.58948267848402   -5.17102317211046
H         5.14482953836734   -0.03116713665535    1.14044884199525
H         4.79123141929087   -1.53691439449081    0.25799011543397
H         4.01741349359335   -1.32055623856742    1.81874245972445
