36
 energy: -50.516974727460 gnorm: 0.301483567967 xtb: 6.4.1 (79825abcba525fcdf90b791dcacef51065a7a4e7)
C         3.38688835533981   -0.31355820171204   -3.69318705007479
C         3.27806776393611   -0.77239625190337   -2.24644328899372
C         3.51033172638203    0.45431217163426   -1.28344745655386
O         4.88312469220653    0.86496549816439   -1.40135373398340
C         2.42685197546829    1.57609550456704   -1.54242642448364
C         2.82308272466498    2.68575074733036   -2.60889297576859
N         2.87800192442950    3.93643972364940   -1.84421849257201
C         1.97410360366649    3.84715232865528   -0.68785146026170
C         0.49827749724333    4.18559454743086   -0.90672104913718
C         2.18817767205624    2.38599555125111   -0.25758874929261
C         3.43946806561448    2.34375831155501    0.60432190396570
C         4.67341693930731    2.38172081858416    1.02382036569328
C         1.78227171446837    2.80895454693441   -3.70977382019025
C         0.75174554374677    3.19053595671103   -4.41152609102534
C         3.23768126437227   -0.31819888880990    0.04801013474041
C         4.44787390115792   -0.94313013169663    0.68292933599919
O         2.13437874889783   -0.54114695840232    0.57376597242584
H         3.15417223670793   -1.21748884275190   -4.28136523756025
H         4.44682736889052   -0.07858423043176   -3.83295526602931
H         2.72285749066162    0.50943384635647   -3.94464752296948
H         4.06548118693853   -1.53057571398832   -2.11579043455247
H         2.27979145946431   -1.19518354977881   -2.07746842845743
H         4.95365077985949    1.67495605657651   -0.86817635347116
H         1.50582708286744    1.04930227642199   -1.84161215171914
H         3.80455429228774    2.58213030680912   -3.07009296528847
H         2.72120522618669    4.77506720899945   -2.40016678817395
H         2.40478877882856    4.55464164667980    0.03074126319315
H         0.18894038572844    3.72027790754998   -1.84835141130419
H         0.50064668690016    5.28106933842559   -0.93656708755583
H        -0.12106008511134    3.82762466823334   -0.07616293642963
H         1.45615901304941    1.89710635702854    0.39394019134455
H         5.48989942427023    2.31859854142370    1.70617742906175
H         0.09697270559213    3.42078089061022   -5.22024209818639
H         4.29615987057273   -2.01695608645361    0.77756373354818
H         4.43186639083603   -0.65105508323347    1.73783581129445
H         5.38184009359176   -0.70157539221776    0.16790620701762
