36
 energy: -50.517252292865 gnorm: 0.306060033378 xtb: 6.4.1 (79825abcba525fcdf90b791dcacef51065a7a4e7)
C         3.20030682596727   -0.49477818212299   -3.71948035810668
C         2.98490984815537   -0.81476100997132   -2.24752352763212
C         3.37195308666575    0.36349477900744   -1.27385422918453
O         4.77203270954180    0.58082711146423   -1.51807195789931
C         2.37168672337627    1.58115097309991   -1.40104282875810
C         2.73905567705353    2.57555207684641   -2.58505760747751
N         2.85568235124093    3.92821446691552   -2.02947792619082
C         2.15148154244744    3.99369918003705   -0.74029131990011
C         0.65357097341302    4.25678192947638   -0.90630676553864
C         2.41782159338478    2.56939386960243   -0.22420004769127
C         3.81272386355548    2.45579419764984    0.36888038618542
C         4.79381826017047    2.65732411219774    1.20367942207346
C         1.71000446875487    2.59178526970582   -3.70362609652936
C         0.85671217442817    2.87028696521578   -4.64933951957337
C         3.25686283003330   -0.23584685407089    0.16539376649103
C         4.46922476356316   -0.76600373203899    0.87767173035748
O         2.13349018019665   -0.31361451480607    0.69016760238928
H         3.31281407743509   -1.43499893649808   -4.28563230214604
H         4.17097515402305    0.01086718627348   -3.73803813020005
H         2.44723058630854    0.17072754932189   -4.13356195272259
H         3.63184034613571   -1.69103385879026   -2.08767049964099
H         1.97097899763962   -1.16863955024213   -2.02264269122913
H         5.00567105600185    1.39424576131972   -1.03942806274568
H         1.37149421831396    1.16427159703024   -1.60386444164074
H         3.70842474087418    2.29268631213524   -2.99376245937976
H         2.52631466612482    4.62359443148405   -2.69650371946968
H         2.57756470367677    4.81002436150523   -0.14491522495378
H         0.14545799717611    3.58308716037279   -1.60404118703875
H         0.33049334295853    5.26286308045091   -1.19679424427098
H         0.17633659444751    4.13996150308953    0.07356495622949
H         1.69046401083294    2.28490136734941    0.54350360186997
H         5.76760853481330    2.61256344062736    1.63491975428802
H         0.17775010342845    2.75516909326729   -5.46267841674870
H         4.41011986979734   -0.43223971833809    1.91216832080439
H         5.38397413276535   -0.32120719699821    0.47297261081801
H         4.38444890632236   -1.85616060664207    0.86150348395447
