36
 energy: -50.514036244717 gnorm: 0.314532435648 xtb: 6.4.1 (79825abcba525fcdf90b791dcacef51065a7a4e7)
C         3.01427307063763   -0.66063265533565   -3.59232944025642
C         2.83404776847565   -0.81904747778832   -2.08970993945355
C         3.41350412770637    0.36389534550427   -1.22310871264950
O         4.77766145279317    0.71984364787308   -1.50502038768984
C         2.47748966987553    1.62912605487085   -1.37299047562505
C         2.76402820107714    2.41119105913201   -2.72648760892304
N         2.84267152002796    3.81399488228212   -2.30467869535885
C         2.37112847046436    4.10671752976396   -0.94300703145402
C         0.91540936965648    4.57699004896622   -0.92766488726976
C         2.53008733278251    2.72185371592560   -0.29276314233098
C         3.86966275732714    2.69132455471987    0.42487689372334
C         5.06546910832605    2.77732750397902    0.93742012836906
C         1.60852197030682    2.26940710656387   -3.70378388573524
C         0.56082996132596    2.17885536163566   -4.47461890850231
C         3.18016544096445   -0.19234632801977    0.21912539681152
C         4.36768453505320   -0.74035578492168    0.95920087995935
O         2.04339207903125   -0.19477088863843    0.72026604566770
H         2.65738864280159   -1.63594101054305   -3.96463051814859
H         4.08783046262666   -0.57728868315643   -3.78917186424755
H         2.41052477703947    0.14430823207691   -4.00347836062779
H         3.30189710176062   -1.75315252000745   -1.74259189104781
H         1.79963256028091   -0.84449750553859   -1.72475149829835
H         4.91073248794955    1.56141608695860   -1.03663519811807
H         1.47128168422660    1.18384798470431   -1.30529259707999
H         3.74540758310590    2.09046728762415   -3.07399277354692
H         2.59208787965906    4.44441209306881   -3.06411384618817
H         3.00220091437834    4.83549918887068   -0.42048314321246
H         0.29962700798522    4.00356885898580   -1.62829102320337
H         0.84891494207959    5.64931624104183   -1.14366591072868
H         0.52929823554041    4.44296350720888    0.08944048193488
H         1.72271339495416    2.50480281788522    0.41461945964667
H         5.98447638706187    2.72039321936330    1.47447070446617
H        -0.29925368659149    2.07974476482316   -5.09606478361713
H         4.11872197021164   -1.08071096192295    1.96281982856236
H         5.00273645876947    0.15101740867759    0.93565013150398
H         4.84017141673144   -1.48144655521732    0.30848512851086
