36
 energy: -50.518384664805 gnorm: 0.301256034681 xtb: 6.4.1 (79825abcba525fcdf90b791dcacef51065a7a4e7)
C         3.18403466426498   -0.44716835233369   -3.64457539460564
C         2.93154888141145   -0.82992790550680   -2.19364885090697
C         3.33092312517766    0.33873549015904   -1.21342074126628
O         4.70142534863993    0.70118770372410   -1.45310939637275
C         2.46667627042354    1.65729903610771   -1.33116577011474
C         2.77191799853304    2.53820889797067   -2.61822047043313
N         2.75320947427182    3.93109947927979   -2.15835969677355
C         2.17036165785417    4.00465155384831   -0.81037318158318
C         0.66208377251477    4.24959720398604   -0.88526763295131
C         2.61778413172430    2.67199391625888   -0.18605788998091
C         4.02405248325990    2.95727443983972    0.31536600446988
C         5.18414225967158    2.86574330318658    0.90346775415287
C         1.81261187048074    2.27291872615296   -3.76702780198905
C         0.72427932965317    2.51489007743131   -4.44306551380986
C         3.14084568667580   -0.29360341308660    0.20358632890960
C         4.26616281218058   -1.12230317931746    0.75598631138735
O         2.08055614939375   -0.08942772261638    0.81799652125410
H         2.88507256720647   -1.33758471184640   -4.22335112470466
H         4.23142691136058   -0.17709906897745   -3.81265482067327
H         2.56188528237926    0.38979587018888   -3.95101675295242
H         3.55861937422535   -1.70768788070098   -1.97399870663202
H         1.90051347002021   -1.07111778620275   -1.90615866537679
H         4.73379327181992    1.50350852329001   -0.90486640181611
H         1.40752953831946    1.35423729896550   -1.37205408844720
H         3.77382536474641    2.29058421077750   -2.96692196300852
H         2.26445758479651    4.48210360258509   -2.86154944667209
H         2.60875697748356    4.86723977456415   -0.29446867256788
H         0.25199414208033    3.81269408366945   -1.80168397962862
H         0.50537645453778    5.32712893803574   -1.00908037327317
H         0.09807385593137    3.93060294834482   -0.00113883531711
H         2.04209624902452    2.45121029052209    0.71903435066353
H         6.19680496762674    2.82391432287484    1.23362497952466
H        -0.02925946840178    2.54806961094300   -5.19595341832508
H         4.30195624481320   -0.96154970038927    1.83206816195117
H         5.22605896818360   -0.85801934300199    0.30085427729054
H         4.03074260547777   -2.17829191703352    0.59675226601347
