36
 energy: -50.515220219558 gnorm: 0.295053244136 xtb: 6.4.1 (79825abcba525fcdf90b791dcacef51065a7a4e7)
C         3.12173332735104   -0.70908267190229   -3.66083018445976
C         2.76913029314140   -0.87589114619454   -2.19001823067491
C         3.31368954805751    0.31831112030181   -1.31625784504436
O         4.68297933976986    0.56234282996829   -1.68039046509794
C         2.48947212720016    1.66348243800823   -1.41909790047924
C         2.88730014589200    2.69014908421083   -2.56512274183816
N         2.88275659904146    4.00947214556126   -1.92377096143025
C         2.10390083162278    3.97860148927426   -0.67692701928223
C         0.61082528280203    4.27737615950106   -0.82514585005937
C         2.43792707360756    2.56389164492909   -0.17398035096744
C         3.82352820837220    2.55275479126270    0.45082927035966
C         5.08831629749243    2.79101848644753    0.65961487967454
C         2.01223808352617    2.58926518398917   -3.80386977006296
C         0.90763112427167    2.49924081767432   -4.49073504176173
C         3.16322718154823   -0.19611219129069    0.15228587332693
C         4.36676961948026   -0.64779478595674    0.93055066506207
O         2.04504631472728   -0.29843336120487    0.68389043679920
H         2.93990082311876   -1.60236783056105   -4.28226363588141
H         4.21138422093224   -0.60584521701482   -3.67571605095615
H         2.65854124936332    0.14026659912391   -4.15635433089261
H         3.18869049422022   -1.78376154968567   -1.72994570657759
H         1.67966286513173   -0.83548940970495   -2.06638326210372
H         5.00459796327830    1.35018982294141   -1.21007639218801
H         1.47831205017277    1.37573024737502   -1.75085691100248
H         3.90049445286739    2.44914911776759   -2.88463078490318
H         2.58468695792728    4.72303037920088   -2.58630315461829
H         2.51264066042159    4.67472343214370    0.06519989028001
H         0.19183976660868    3.62945583228132   -1.60201594683606
H         0.36528276834743    5.29395376928272   -1.15262141723857
H         0.07819747576367    4.12823976308576    0.12122310884171
H         1.77761882829264    2.20170611939198    0.62110994531251
H         5.99500225230353    2.88042951125880    1.21293709915313
H         0.36916521319088    2.62122536006873   -5.40229196577280
H         5.25140650143886   -1.04830085278220    0.43852682135793
H         3.94721957895251   -1.46826625760855    1.52147881254990
H         4.75298556681841    0.13156922557497    1.59336235806067
