36
 energy: -50.516586250686 gnorm: 0.304446954998 xtb: 6.4.1 (79825abcba525fcdf90b791dcacef51065a7a4e7)
C         3.17159808618050   -0.46810975847625   -3.71441754016718
C         2.79322327563243   -0.74266962780293   -2.26635292056727
C         3.25216758747157    0.37290851030641   -1.25098275435171
O         4.59709596183720    0.74013653883243   -1.60228010122477
C         2.40324547753087    1.70197465032879   -1.36193663393701
C         2.88171704977098    2.67819258378378   -2.52113807324234
N         2.89293271976969    3.99055398222138   -1.86573906947928
C         2.06890206366329    3.94156062402202   -0.64887332123957
C         0.57171139387106    4.10090892870556   -0.92005211273484
C         2.46109634293935    2.56333287261056   -0.08976265922482
C         3.83684358281463    2.62703064650695    0.55340424869673
C         5.08905529369132    2.83831827223342    0.84899393665265
C         1.84738255075578    2.53345298498599   -3.62549668533791
C         1.11708337669595    2.47018212371861   -4.70378454725577
C         3.14885742572187   -0.27015484920462    0.17017432198335
C         4.46163858160427   -0.79282022245514    0.68169577116812
O         2.04600064889735   -0.35115191664812    0.73634380087162
H         2.94286950835044   -1.30421087932877   -4.39692696898346
H         4.24019005192574   -0.27757920883325   -3.85593766447479
H         2.67931975786757    0.45658830750073   -4.00438443718623
H         3.38146657325721   -1.60197474884136   -1.90929452337257
H         1.74147273560368   -1.04062393670938   -2.17200676107188
H         4.89535028768394    1.15437751795363   -0.77476241190375
H         1.37091877133678    1.33811662347649   -1.49315769513629
H         3.84694880567161    2.44135993267902   -2.96719526126837
H         2.56011785724328    4.74075951473371   -2.46855388076621
H         2.45103206377454    4.68436530089649    0.06149575696813
H         0.21834271058473    3.45064770960540   -1.72700172665977
H         0.35193780082164    5.11344501845682   -1.27702780952650
H         0.02860415811668    3.92020261574522    0.01478905653918
H         1.69776567958344    2.24456639142005    0.62791981464817
H         6.03286484914320    2.66493726737744    1.31310788772007
H         0.32321935211953    2.41923827431052   -5.41297168973596
H         4.21686702627752   -1.45130971963905    1.51329270643386
H         5.10948394162783   -0.02363603137538    1.11418138582317
H         5.07640528326495   -1.28451865470352   -0.07737267948152
