36
 energy: -50.518977865086 gnorm: 0.290384660835 xtb: 6.4.1 (79825abcba525fcdf90b791dcacef51065a7a4e7)
C         3.03244564145797   -0.32640175188520   -3.76808976279288
C         3.08091806557417   -0.76082848682329   -2.31056940426736
C         3.39461940620039    0.37620103239393   -1.26420599735944
O         4.75477060137762    0.73884085085547   -1.55674600718575
C         2.35089617088412    1.56132226077750   -1.33854163178234
C         2.80405168205870    2.58541068705960   -2.46618405810814
N         2.94930567253342    3.86550746160550   -1.76460041037618
C         2.06218655689690    3.84436083634711   -0.59209811838418
C         0.62014936918323    4.11966702701800   -1.02249908035482
C         2.20542802692577    2.40719322660965   -0.06298188463464
C         3.52113221071559    2.41102838206119    0.69814190083631
C         4.61408544078467    3.03847028093452    1.03253666007231
C         1.81187807731423    2.66816187742928   -3.61472622707973
C         1.18874146226159    3.02313359186355   -4.70364341037566
C         3.28278449263755   -0.33344659463595    0.12424065493243
C         4.57597239339481   -0.92184055034862    0.61381725996411
O         2.19483525529687   -0.37648192626082    0.72250137581577
H         2.75766155223058   -1.20352776267157   -4.37829024982512
H         4.05606608574094   -0.05585501911427   -4.04598233090789
H         2.36813280220889    0.50500551900188   -3.98930383000379
H         3.86811831604356   -1.52583646329335   -2.22687522092390
H         2.14452171592982   -1.25117321910611   -2.01632275123640
H         5.00359475796949    1.37378762205653   -0.86373382168990
H         1.37709098110486    1.08254263473948   -1.53292161347602
H         3.77187006628378    2.25593830439405   -2.84235500987418
H         2.60949996083303    4.54349542593594   -2.44417687969900
H         2.40352999198011    4.51537196030447    0.20516914594198
H         0.35837168206001    3.44999102609000   -1.84826131021601
H         0.63654266738763    5.15228302284448   -1.38910088468418
H        -0.11599955313163    4.04100296677824   -0.21413964062440
H         1.38933590792399    2.05834187228107    0.57861791326366
H         5.61573102148460    3.04127517585415    1.39714262278426
H         0.42736269557688    2.93559023549517   -5.44418395992860
H         4.41962279151005   -1.94775401311032    0.94265059093675
H         5.03510373354215   -0.34744090011003    1.42477668555694
H         5.29482909238924   -0.84925938594956   -0.20707699983340
