36
 energy: -50.518198982755 gnorm: 0.305184784842 xtb: 6.4.1 (79825abcba525fcdf90b791dcacef51065a7a4e7)
C         2.75409753752938   -0.69492234862713   -3.58886990475611
C         2.96842676315874   -0.95479387073546   -2.10496574490923
C         3.35317255831300    0.34520213389713   -1.29991783548095
O         4.69528256441132    0.58548500736249   -1.75610143283502
C         2.34949398845757    1.55796929576504   -1.44559381411473
C         2.74863495636233    2.51200954079076   -2.65231589770862
N         3.06431987710775    3.78322615684494   -1.99177260644439
C         2.24629715936265    3.91370486280173   -0.77686385686286
C         0.81579921056100    4.33857817671157   -1.11401072279945
C         2.43934423607928    2.49041116335272   -0.22649970443462
C         3.74127995131962    2.45559197311276    0.55717917916329
C         4.70178674841150    2.78420099651805    1.37540452248297
C         1.62161595947942    2.57500744574780   -3.67028682276617
C         0.74974398588611    2.82284534174049   -4.60754902096540
C         3.35350227844269   -0.08401702905574    0.20329930259544
C         4.65089442966661   -0.61813003504322    0.74156000701827
O         2.30198847966380   -0.18768299758405    0.85673147159663
H         2.77167560045922   -1.66946176537297   -4.10574988141013
H         3.61207039976926   -0.10556556242071   -3.92763203086833
H         1.84736538627015   -0.12135998964082   -3.76307752604231
H         3.78356689757638   -1.69316069932443   -2.05714157084258
H         2.06795001000394   -1.45600714735599   -1.72842351751087
H         4.97316581734650    1.46780733056758   -1.45672713487937
H         1.31126340085684    1.21097869534561   -1.57591967980127
H         3.65193810222293    2.13925365274854   -3.13379854806880
H         3.05906327050991    4.55274860714303   -2.65868140001739
H         2.68280030242760    4.69885530213156   -0.14804739109099
H         0.41400400443377    3.83135400358008   -1.99727795852770
H         0.80241884404459    5.41846960470831   -1.30006685311529
H         0.14116584196877    4.23288332413092   -0.25654546498049
H         1.66067796332290    2.25144721084467    0.50557200346511
H         5.31779659686786    2.97141768018915    2.22494616300431
H         0.01053912349411    3.19032873231285   -5.28156230209080
H         5.07416029859768    0.07926313790460    1.46236772539594
H         5.31603049499469   -0.77509192446259   -0.11362928697590
H         4.48367291558679   -1.55703558546696    1.27670830635762
