36
 energy: -50.519652664061 gnorm: 0.311249931480 xtb: 6.4.1 (79825abcba525fcdf90b791dcacef51065a7a4e7)
C         2.83878501582210   -0.45450429190349   -3.65386590853545
C         2.88465546753265   -0.87127089665215   -2.19111395468721
C         3.32312727097551    0.30469364959381   -1.23666597887275
O         4.69789552509900    0.59955755567609   -1.53694273483431
C         2.46692849225625    1.62629762126849   -1.37696188747493
C         2.88811239925799    2.67816847783610   -2.49134795604000
N         2.93183710319167    4.01114730915267   -1.88042923679844
C         2.06070390729545    3.97537755561331   -0.69635296702076
C         0.55612508817631    4.14726490688815   -0.91362480065269
C         2.44275918890700    2.58076626814339   -0.17192378852323
C         3.84045570514428    2.71004944584829    0.41128450964183
C         5.10371405574720    2.88127205294446    0.68498341868181
C         1.95242794806410    2.55876111783668   -3.68325477146867
C         1.10237449870747    2.58108380208235   -4.67166543458487
C         3.20071876019764   -0.26397027250696    0.21437794119785
C         4.42115794754276   -0.87546743562646    0.84273061732697
O         2.08835042410263   -0.31365538562156    0.76534942436914
H         2.71346625713734   -1.35376895318717   -4.28061885060420
H         3.81328072344206   -0.03495100923614   -3.92322030412577
H         2.04110156023235    0.22775466569402   -3.93619388616774
H         3.65968653036696   -1.63611973442475   -2.02906681274902
H         1.92547931315119   -1.19586913491813   -1.76865179583201
H         4.89976543967636    1.44985555337021   -1.11082231902871
H         1.46067601575176    1.27566103348284   -1.65948624649419
H         3.89788608871360    2.51682404791985   -2.86691971893474
H         2.64052655294849    4.74605291464546   -2.52231060275625
H         2.38065078013021    4.76619035790643   -0.00740052247407
H         0.17215988678528    3.26982417612340   -1.44423317912374
H         0.30552407473283    5.07238257070158   -1.44496071608213
H         0.03806646596949    4.13482676704959    0.05229901224434
H         1.78725883402864    2.16858909931435    0.60253291916028
H         6.14633198726106    3.07224064942940    0.79775785221137
H         0.60097475520545    2.60381301270469   -5.61179492430722
H         4.42144388538131   -1.94274755565886    0.62828233949738
H         4.20719952913167   -0.77344161494895    1.91147019180409
H         5.41238129271986   -0.45547054648679    0.65045671028472
