36
 energy: -50.520467079628 gnorm: 0.307920187278 xtb: 6.4.1 (79825abcba525fcdf90b791dcacef51065a7a4e7)
C         3.41677422413536   -0.37177602533029   -3.76838325474008
C         3.02949714357428   -0.76447054429766   -2.35019805641370
C         3.41328384591380    0.32995562458137   -1.28199386019908
O         4.78922293774393    0.70000619583669   -1.47422492620022
C         2.46149956791257    1.58640344974310   -1.40382120450514
C         2.80718301239432    2.56989178327793   -2.60337868527055
N         2.97956082530314    3.89794553798233   -2.00460893480046
C         2.18954742717795    3.96255125237749   -0.76610416667986
C         0.68715434633760    4.21434385529004   -0.90726100331949
C         2.38286667421449    2.54403774213754   -0.20362755959133
C         3.66626832611077    2.65869386612116    0.60268240827437
C         4.90827728255790    2.73803637838630    0.99148626378732
C         1.64474694674204    2.55689745996639   -3.58265337609826
C         0.66767739957184    2.71865301157897   -4.43071885005731
C         3.12306667952536   -0.31919085726566    0.11022515986675
C         4.33752581683574   -0.78846573437929    0.86062356743815
O         1.96297691119046   -0.40282055917150    0.54680195628891
H         3.30129472712263   -1.23761171596365   -4.44232243189289
H         4.44008954643665    0.01677081018743   -3.77708605024292
H         2.78975850479676    0.41667531203111   -4.17664915427344
H         3.61149747050230   -1.65302671372068   -2.06094086699777
H         1.98444639568869   -1.06888370687284   -2.21214465184575
H         4.94736769145347    1.27255205316267   -0.70447286467121
H         1.45522694590252    1.14234715894041   -1.47824898811749
H         3.73721983678420    2.23944519052156   -3.06442708691972
H         2.75096770517007    4.55742684922585   -2.74608675771440
H         2.48321998483180    4.73055938365957   -0.04062067385286
H         0.18689116305316    3.40699676875710   -1.45205838959559
H         0.48295704683703    5.15115072318669   -1.43797539974403
H         0.17328538442879    4.26480591151181    0.05966222304920
H         1.59333371920183    2.17263139944918    0.45822511469945
H         5.75464255324792    2.82364247886848    1.63380756212472
H        -0.19257106511988    2.63438861785046   -5.05412391285058
H         5.03862924472962    0.04281548054087    0.91062881231185
H         4.84171783432998   -1.54829349536203    0.25494714283775
H         4.15391324688629   -1.27275336580102    1.82376544630089
