36
 energy: -50.516566274754 gnorm: 0.302334404987 xtb: 6.4.1 (79825abcba525fcdf90b791dcacef51065a7a4e7)
C         3.49971334910586   -0.38478697523066   -3.77646713650770
C         3.01782517581458   -0.63557260868258   -2.35508325854141
C         3.41789241467423    0.39117407988530   -1.22731620842437
O         4.79688894742524    0.74715346858154   -1.42415578314011
C         2.48176212525102    1.65528484185235   -1.38568419198439
C         2.80245523722611    2.54192679425300   -2.66502248483488
N         2.85813756525998    3.89898181684017   -2.11070555518724
C         2.23046923855190    3.89681902898239   -0.78096237460803
C         0.71099525035122    4.05224704543776   -0.86785694495229
C         2.62015724867869    2.55186324593515   -0.14443269258472
C         3.93743645142349    2.83362146665128    0.55969041567870
C         5.16791691516882    2.88748218177686    0.98755340118929
C         1.66095001519834    2.43849112378480   -3.66335724339595
C         0.48890552413814    2.62913831250370   -4.20188318901296
C         3.00291733757850   -0.30056200785728    0.11178341658728
C         4.08203665546708   -1.00400004067910    0.88567235922737
O         1.80664589140684   -0.41665574753389    0.42620090723291
H         3.37886213134442   -1.27994714789644   -4.40993711913490
H         4.54207450038022   -0.05088652223161   -3.76189499758184
H         2.88981049073746    0.40109144914683   -4.21452977429865
H         3.50783654443232   -1.56918876282281   -2.03857748329613
H         1.92482470161883   -0.73113080093654   -2.36378837004533
H         5.02143243501043    1.58056651827119   -0.97656259671532
H         1.45293090628303    1.26119179676920   -1.42450510346630
H         3.77193248064848    2.31099858517240   -3.10492601024364
H         2.47808326503788    4.66306212869198   -2.66631313338865
H         2.68801417784222    4.74393307838162   -0.25612261288439
H         0.23390326436786    3.34509684180692   -1.55429600859160
H         0.48368827422355    4.99612383200350   -1.37617728404872
H         0.29530990098279    4.03689095640227    0.14630188694009
H         1.94871074896787    2.25604707675664    0.66859024904621
H         6.05450964066316    3.23090798431118    1.46947794612866
H        -0.36840214078205    2.52124198306757   -4.82569705900293
H         3.67626903772649   -1.81556902701952    1.48715670405165
H         4.60156892949254   -0.30309850512956    1.54689470899134
H         4.81312253872083   -1.39503884526888    0.17258579223862
