36
 energy: -50.520414896531 gnorm: 0.302122380105 xtb: 6.4.1 (79825abcba525fcdf90b791dcacef51065a7a4e7)
C         3.28583346616019   -0.57950288643864   -3.67661722307894
C         2.81515420580140   -0.73415850786608   -2.23787316930162
C         3.32756729073332    0.37570156077062   -1.24199941251860
O         4.72158581857128    0.57501743073805   -1.53197202928312
C         2.39864744257826    1.65087267702907   -1.34418985664826
C         2.74576723770870    2.54703919736944   -2.60992201163863
N         2.80267277410824    3.90114884948820   -2.04857105004626
C         2.11140791588855    3.99732809114849   -0.75431776175764
C         0.58683898982796    4.12214976958129   -0.72944067059653
C         2.51221756671276    2.63334512926554   -0.16709127487689
C         3.94811509937021    2.70505769584472    0.32632253448304
C         5.08381407558636    2.62131395199945    0.96132233833841
C         1.76560798056955    2.50139318658765   -3.77078790480207
C         0.91188403442689    2.75563166069920   -4.72292393052247
C         3.15012355501860   -0.19420130681777    0.20285884897487
C         4.37202921032562   -0.81069379625181    0.82343217601917
O         2.03240895862627   -0.21916895376539    0.74460804687406
H         2.92976853919110   -1.43938110998440   -4.26909353577715
H         4.37966054626645   -0.54331140528063   -3.65537747108981
H         2.89884455898217    0.30594446147117   -4.17431979315101
H         3.24511918766387   -1.63035704460838   -1.76470885316867
H         1.72348404904066   -0.70415236757090   -2.13198129646278
H         4.99289954617606    1.39688968051842   -1.08896907118481
H         1.39820511119755    1.18859140769501   -1.37104572583977
H         3.71740348009932    2.26175929890343   -3.01150321304578
H         2.51651554494212    4.58206627379841   -2.74958836341988
H         2.57458240536684    4.81459927445758   -0.18868222206619
H         0.02189767285971    3.24720912263161   -1.06737103708387
H         0.30215691161050    4.93020617307626   -1.41278712678208
H         0.27191041974796    4.46209841617855    0.26393899916929
H         1.89327537843563    2.39602992968880    0.70465753206436
H         6.13103139709730    2.76450212420907    1.09942469540365
H         0.10558127992818    2.63964278590549   -5.41008055252257
H         4.95019104777132   -1.38678624438681    0.10307019922521
H         4.17006946948664   -1.29412619334696    1.78462785009653
H         5.08384787480820   -0.01267165833005    1.05226666905750
