36
 energy: -50.519494943372 gnorm: 0.304676427704 xtb: 6.4.1 (79825abcba525fcdf90b791dcacef51065a7a4e7)
C         2.98821374271474   -0.37172418944762   -3.61508428379256
C         2.93280568426310   -0.85736479859219   -2.17406904344393
C         3.34796146742904    0.34905851483823   -1.24761909504707
O         4.69672786280685    0.78313987836772   -1.49154768304649
C         2.36559412268863    1.58009877567898   -1.38506210543709
C         2.85729509028143    2.56954847114424   -2.52738602129649
N         2.92700581616533    3.90414188494635   -1.92243401742130
C         2.02365876959101    3.88906140009522   -0.76229358979286
C         0.56778866078022    4.13498940149401   -1.16288235337007
C         2.31955039886902    2.50571929715706   -0.15835189478849
C         3.64701424025371    2.58806232750776    0.57748837554783
C         4.87816269732315    2.76616946688945    0.96813038896500
C         1.86184674291239    2.60916130645173   -3.67539245777345
C         1.01099300749246    2.94920040040459   -4.60300559768017
C         3.32125401826842   -0.22239226570971    0.20724228420265
C         4.53691875168294   -1.01691556437045    0.59340240160213
O         2.30034798683979   -0.17761615511047    0.91374596490892
H         2.70779491531078   -1.14769737425187   -4.34749937660133
H         4.00352155350546   -0.03448376435591   -3.84668215756058
H         2.28182041085182    0.44175423354253   -3.75912103189905
H         3.70946116728412   -1.62532453062487   -2.03633643153439
H         2.03034527820682   -1.32535964374371   -1.76126980136043
H         4.91945846095515    1.34197060376183   -0.72771782264623
H         1.34477796947250    1.21108947655885   -1.57761485717664
H         3.84866688772194    2.30576383721251   -2.89389480318355
H         2.76648210101583    4.66856411849028   -2.57577202653911
H         2.33281879315712    4.64264943894235   -0.02817405163108
H         0.28115277026074    3.32242263338761   -1.83849457406986
H         0.40545737306649    5.13607611172973   -1.57813572313382
H         0.00828623373271    4.03835820327756   -0.22524292402793
H         1.60051283954484    2.19126243451305    0.60549086594759
H         5.81361516349907    2.96490692704994    1.43895020584005
H         0.33078202600640    2.88283550056944   -5.42072835017892
H         4.31327220280879   -1.57981065707376    1.49794998506791
H         5.45642304524408   -0.47990627450919    0.84741935132164
H         4.81294048876983   -1.62933286225476   -0.26952715488836
