36
 energy: -50.522084012493 gnorm: 0.308965912220 xtb: 6.4.1 (79825abcba525fcdf90b791dcacef51065a7a4e7)
C         2.90961137813545   -0.65146620542195   -3.54216390498503
C         2.82678982638698   -0.79577154371400   -2.02963015744882
C         3.36792661380984    0.40528689084589   -1.16317144539589
O         4.73181024412304    0.61761069169752   -1.56546318182161
C         2.40104527480224    1.63923141343164   -1.36790968118137
C         2.70438831394574    2.43104850149454   -2.71204255476267
N         3.01135865893395    3.76542906314391   -2.18557905404672
C         2.28381368536377    4.00425096493743   -0.93025776502310
C         0.78524238875274    4.26970992646883   -1.08622360871181
C         2.48370002639523    2.65589632225416   -0.21757407300354
C         3.81081965613611    2.64106633237265    0.52332749579894
C         5.00194270211815    2.75779948944972    1.04067570469756
C         1.55005472516789    2.41613057664713   -3.70082805977818
C         0.62232068638837    2.66102132215210   -4.58365469982012
C         3.27600173464249   -0.10729969526470    0.31083525828544
C         4.53362495221700   -0.82510482697951    0.71254077272366
O         2.31691828566931    0.10381904498730    1.07174872809163
H         2.74378606613989   -1.61612542848698   -4.05121745902971
H         3.89169313418611   -0.28675237044685   -3.85952469741518
H         2.14141806556112    0.00965415993457   -3.93495413599461
H         3.42469432337226   -1.65097535370268   -1.67882704096408
H         1.78402304867821   -1.00210762913390   -1.75774773326316
H         4.87736136979379    1.56584063213006   -1.40731260094802
H         1.37660762381282    1.23356029949045   -1.33229342222341
H         3.57097525937251    2.02192651845433   -3.23009210787093
H         2.85568698150494    4.46901994892330   -2.90508302656258
H         2.82716598176493    4.76182768459047   -0.35297780366334
H         0.28777158562707    3.29431287638741   -1.08582409849087
H         0.64946756112775    4.83128623699383   -2.01743715033912
H         0.39383232957454    4.83479064866972   -0.23239095615897
H         1.74900940819001    2.45813997972830    0.57012894388500
H         5.85298311284932    2.69630831547845    1.67957183979934
H        -0.03453721210446    2.64493066891720   -5.42272595174646
H         4.91685423122608   -0.37458124461114    1.62645478569171
H         5.25564714964977   -0.78559268510028   -0.10935610950072
H         4.20676976905419   -1.84506327610294    0.93331401480523
