36
 energy: -50.517106045493 gnorm: 0.304434527562 xtb: 6.4.1 (79825abcba525fcdf90b791dcacef51065a7a4e7)
C         3.25892447730009   -0.42578644074214   -3.65622310406517
C         2.83641831332818   -0.76131435313274   -2.23342609076496
C         3.34195635474758    0.35626862782629   -1.24268867531141
O         4.69127977702303    0.73495566184172   -1.56365752834925
C         2.41010278157489    1.62846476337069   -1.35477001490801
C         2.75478875862637    2.62708220159384   -2.54205231271878
N         2.88818075169066    3.96109251896424   -1.94657843651413
C         2.14548381849368    3.96349866676224   -0.67749033671487
C         0.65339462661536    4.21215081525760   -0.90629524154913
C         2.44325842523654    2.55724366771412   -0.13003257596365
C         3.82319027992064    2.70266076921808    0.49048618048574
C         5.02272016091144    2.50724109544663    0.96270343487669
C         1.64945383673577    2.59074999291742   -3.58479869636697
C         0.93305452701293    2.57159082824787   -4.67404143544501
C         3.17349309758667   -0.29727945677600    0.16741272058415
C         4.44790504037488   -0.83178982080537    0.75766734888718
O         2.04528648024559   -0.45441017326231    0.66325669064850
H         3.20703346071206   -1.30189309641036   -4.32476287247308
H         4.27895557870645   -0.02990567654114   -3.62407338917042
H         2.61058129938314    0.34956519845928   -4.05618088751130
H         3.36833239749112   -1.71078504825318   -2.06759796759198
H         1.75679661026581   -0.81690184325408   -2.04585159302642
H         4.91555604490853    1.44043714896277   -0.93331414512134
H         1.36949337135869    1.29810189125285   -1.50742154169226
H         3.68522220639755    2.35887162218045   -3.04113722491230
H         2.45021048831177    4.60406598846940   -2.60363775205222
H         2.50482320972447    4.72017076472047    0.03013166353471
H         0.33473163734722    3.54068319744692   -1.71032378583329
H         0.59734904664217    5.21995445860434   -1.33308808003271
H        -0.02090147045647    4.23581140678445   -0.04240103416517
H         1.73878288654846    2.20277757369414    0.62985025577598
H         5.90386399182601    2.76357823475158    1.50502810370204
H         0.40689138515636    2.40515769371786   -5.58575088645052
H         4.35760677728678   -1.36666350074542    1.70150597906067
H         5.04618264081952    0.06495530084752    0.94820303236135
H         4.92813824063271   -1.33593445376854   -0.08560285120341
