36
 energy: -50.510078647804 gnorm: 0.306865829091 xtb: 6.4.1 (79825abcba525fcdf90b791dcacef51065a7a4e7)
C         2.34581253351675   -0.46242979981560   -3.70924243616331
C         2.56458292857372   -0.79834040034338   -2.24133734478160
C         3.27312653908875    0.38799373257649   -1.48193077713363
O         4.54331904358126    0.64319418681343   -2.10529450012500
C         2.41650359723804    1.71674892282907   -1.48016904659843
C         3.07635052216322    2.95712468485542   -2.22297080652880
N         2.41109350210850    4.11864482644254   -1.62274572856185
C         1.70364355852175    3.74149481335910   -0.39008131137292
C         0.18894713974780    3.76320584763702   -0.60393435819212
C         2.17378399878449    2.30959828348197   -0.08255387220934
C         3.40565763931404    2.39400529099852    0.80387963129806
C         4.40334236665960    2.56203749303423    1.62633951552336
C         3.00090050759778    3.02963600404354   -3.73936611500931
C         2.89460480126471    2.80326952870110   -5.01901615258591
C         3.55859097831214   -0.12475909410996   -0.03297061964025
C         4.99334321013917   -0.39086274172793    0.32605940758731
O         2.63809016607356   -0.42631222654114    0.74494033986040
H         2.22900243044390   -1.36980718619585   -4.32586440261684
H         3.16730653927328    0.08850998480485   -4.17810444213619
H         1.48834235207788    0.18203874737249   -3.88499922008677
H         3.21690889929821   -1.67523870059025   -2.10925266919703
H         1.65246006805234   -1.08123751320004   -1.70109824024554
H         4.67320409163721    0.15407103387275   -2.93549036118489
H         1.41511734899177    1.51114485687593   -1.89279794867418
H         4.12065539635101    2.98542783893327   -1.91417422606316
H         1.83626113437881    4.65352242574781   -2.27115414317815
H         1.85657239368184    4.48081257105505    0.40517234522803
H        -0.12016897876369    2.99343969565855   -1.31862594157381
H        -0.14889325180513    4.75354374047160   -0.92959698073907
H        -0.26974945895485    3.58673481251074    0.37586340732405
H         1.41246830424631    1.73586826487008    0.45650659863706
H         5.13275556909108    2.56017166282584    2.40363747159623
H         2.62282329768885    2.71210038062417   -6.04545892565690
H         5.62239174199429    0.36675501023718   -0.13804002913027
H         5.14345982917053   -1.42986675060776    0.01569281646038
H         4.96192796076028   -0.32812972293701    1.41737422273238
