36
 energy: -50.520896548377 gnorm: 0.310211910186 xtb: 6.4.1 (79825abcba525fcdf90b791dcacef51065a7a4e7)
C         3.07929281771101   -0.46435847551867   -3.69878646290582
C         3.09276843782562   -0.82499064031814   -2.22054270205953
C         3.47682980659778    0.38096279541792   -1.28017350806238
O         4.85065332047027    0.74819289926766   -1.49195068885123
C         2.49420485015717    1.61067588484592   -1.42731361356267
C         2.78031980292285    2.61208781206320   -2.62772888826975
N         2.94221481856532    3.92191992386121   -1.98734156931238
C         2.10765753593377    3.89318074255693   -0.77702040394903
C         0.63013523441481    4.18295657431925   -1.04806936230673
C         2.37634059781766    2.50141388360812   -0.17975393054460
C         3.68270994874026    2.54410957520988    0.59611832840167
C         4.71653339881699    2.56256259443383    1.39042208411811
C         1.65171346536537    2.60280264633385   -3.64584815979867
C         0.77910368288410    2.82355176913507   -4.58917565670985
C         3.26044953208443   -0.20854209687748    0.15145300951793
C         4.49844951346276   -0.80513986516284    0.75944545761805
O         2.13776886839612   -0.34291378572557    0.66617027233101
H         2.66928193695302   -1.29204990712928   -4.30212628510385
H         4.06769455468755   -0.23624523278253   -4.11018041266657
H         2.43878809288162    0.38718718557896   -3.91351640995403
H         3.74221749858767   -1.70782322229298   -2.11686675411867
H         2.09459080512812   -1.10362839412381   -1.86018232647768
H         4.98159508272442    1.43679138196929   -0.81813829588657
H         1.48077665108810    1.20999245526718   -1.59382527705337
H         3.67976444172470    2.27801538424523   -3.14360097802125
H         2.70000068557976    4.69074968263232   -2.60958981967343
H         2.49089597176853    4.72150628850797   -0.16922813317449
H         0.27646736346280    3.40556314380118   -1.73323740975265
H         0.51808825655236    5.15241256538254   -1.54662925729158
H         0.07626688839011    4.12921579414689   -0.10367006277161
H         1.68625561491306    2.17418580784513    0.60513995328885
H         5.68671373283442    2.71708408213994    1.80407948249258
H         0.20767268703785    2.90798468304341   -5.48477571467282
H         4.94415762752008    0.11042411961151    1.14436346463824
H         5.14666426619755   -1.26701322732880    0.00785888611966
H         4.15878755194575   -1.46555563372102    1.56217276759591
