36
 energy: -50.519197893652 gnorm: 0.311724566661 xtb: 6.4.1 (79825abcba525fcdf90b791dcacef51065a7a4e7)
C         3.46827588928399   -0.23889588085483   -3.86108788682501
C         3.13877029388796   -0.73035535356158   -2.45918367029990
C         3.32433797432515    0.32018771803668   -1.29813027872384
O         4.68996963664163    0.75863006153365   -1.39771490312852
C         2.37201379468709    1.57898518932761   -1.38703449452319
C         2.70983621623896    2.55571125618902   -2.59433177204700
N         3.05230985908190    3.82793483913226   -1.94925419884256
C         2.21404424419354    3.89374315769330   -0.74295027196882
C         0.73576305527852    4.21194244222722   -0.97520805373798
C         2.46599434023528    2.49464752233978   -0.15559570098597
C         3.75566162695695    2.58195727768894    0.64411478600346
C         4.82710722464359    2.68968696654959    1.37926683751043
C         1.54978147981853    2.69498452200151   -3.56658758390562
C         0.53096026268715    2.71505682767490   -4.38000337713693
C         3.12562803653808   -0.40555484823347    0.07216278077037
C         4.36623251513915   -0.78740443057208    0.82934117126929
O         1.97399871712349   -0.65034855408607    0.46868196373550
H         3.83032736890001   -1.04838237911619   -4.51748053437538
H         4.35717474678465    0.39127009783193   -3.75635826486478
H         2.70030624370333    0.37526380199502   -4.32424636521497
H         3.81552273755392   -1.56279799129728   -2.21225948179640
H         2.13255429059996   -1.16717520878053   -2.48316186119471
H         4.71862893863309    1.65491288674038   -1.02195899808869
H         1.35764428619753    1.20077645893603   -1.59517562959550
H         3.56912394236579    2.21265481894202   -3.16936739581102
H         2.86965340023960    4.62581521270496   -2.55504567011224
H         2.65518767060979    4.71680689359194   -0.16817646830497
H         0.13422822038124    3.44439177225915   -1.47310219218065
H         0.56931071632138    5.12125265904758   -1.56377407632699
H         0.25245503638497    4.36463942480484   -0.00327943167657
H         1.69756906552078    2.20875877465910    0.57045122748761
H         5.74036624569190    2.83801298958209    1.90860280310177
H        -0.33405224670278    2.64358802577594   -4.99839431991196
H         4.77867211178109   -1.69063864277246    0.38309399736001
H         4.16247048260145   -1.08798076075544    1.86206894376857
H         5.07820439676034    0.03398354734372    0.70972427606582
