36
 energy: -50.514285708148 gnorm: 0.308597049148 xtb: 6.4.1 (79825abcba525fcdf90b791dcacef51065a7a4e7)
C         3.85115828238340   -0.31579319530846   -3.70304009983399
C         3.10153590603548   -0.65597373892221   -2.42328025057567
C         3.39256561288849    0.43092480222195   -1.31871050044162
O         4.80439859707793    0.68386383244891   -1.41794781681866
C         2.46012367418682    1.70293777197719   -1.42794114848229
C         2.69042786403490    2.72493319991997   -2.62300171625674
N         2.73881285885933    4.03560473058807   -1.96591335967324
C         2.12013899822049    3.92796626099794   -0.63630975941207
C         0.59725672298138    4.05871311826528   -0.70146004591308
C         2.56396156404628    2.54038156840241   -0.14278867112712
C         3.90279189506173    2.76710615543529    0.54024194486414
C         5.08451532566670    2.83887200149366    1.08652873519573
C         1.59622766593866    2.62116759645575   -3.67293693333262
C         0.54012542369689    2.43426100288671   -4.41439411908521
C         3.04539476547508   -0.32278033765887    0.00616379760145
C         4.12469843924873   -1.16558370170387    0.62504483903603
O         1.89819983426404   -0.25785698730424    0.47853043701477
H         3.40277382889192   -0.79330906301508   -4.59080749632558
H         4.84179995822529   -0.77628870276861   -3.63381879145837
H         3.88070704497299    0.75572814970581   -3.88319044588598
H         3.50873233611319   -1.58359324678084   -1.99242147564641
H         2.01878710553980   -0.76595393667919   -2.56262360483738
H         5.06656996963126    1.38675900392234   -0.79944858508221
H         1.40172309145978    1.39482665587126   -1.44081754805553
H         3.63816835797619    2.55918608032207   -3.13392725484499
H         2.17917391459075    4.67173018476294   -2.53081019411493
H         2.47233465465713    4.79934687170323   -0.07145544182836
H         0.19139819391525    3.19164524770061   -1.23282519712273
H         0.33108953158556    4.98558462497418   -1.22206128546544
H         0.07854410244088    4.04942012928019    0.26414810883253
H         1.85952608609138    2.15283058511916    0.60080314818818
H         6.05394380961805    3.11215732848834    1.43547391694238
H        -0.30988033903324    2.18976927604543   -5.00893239732680
H         3.72135887935650   -2.15906362178122    0.81316673423516
H         4.21100636088227   -0.70499925943708    1.61439041402056
H         5.01998971148867   -1.22602444543703   -0.00000781524063
