36
 energy: -50.520849593187 gnorm: 0.303580369824 xtb: 6.4.1 (79825abcba525fcdf90b791dcacef51065a7a4e7)
C         2.90924497654799   -0.45961801884663   -3.64585343904334
C         3.10988477887786   -0.85988787586425   -2.19155997212491
C         3.47026321735530    0.35084465917390   -1.24796303703448
O         4.80101353053606    0.71897823364080   -1.64881194214819
C         2.43629356122233    1.53665842021182   -1.40336190932341
C         2.81458172561969    2.50196124320780   -2.60784230538889
N         3.02838346895095    3.84380894880865   -2.05494117130991
C         2.18963900100217    3.91447168705391   -0.84924484713772
C         0.68925986309192    4.08335804592180   -1.09592191282414
C         2.41674682049659    2.52627734535577   -0.22693355963364
C         3.75070941022276    2.50468290663483    0.50140638527278
C         4.77496312306148    2.83888104207193    1.23575361274242
C         1.69744779765319    2.53714305153503   -3.63797794295129
C         0.82505709211179    3.06952125076026   -4.44764005896081
C         3.25468566767018   -0.20541846223994    0.19702436269699
C         4.43048389159770   -0.81109223711785    0.91038645327010
O         2.11190806555488   -0.26740782521570    0.68036498428995
H         2.76868323491358   -1.38324702464047   -4.23266927761735
H         3.84941684187767    0.01401394989008   -3.94580052276502
H         2.06597913986411    0.19471195362516   -3.85137784865549
H         3.93568099391670   -1.58781695686330   -2.20185693051743
H         2.15281940878927   -1.19770287596801   -1.77470977182976
H         5.09705906987462    1.56948657889008   -1.28230227018825
H         1.41838604719325    1.16968307581811   -1.61432031425899
H         3.72273203649793    2.23826211207509   -3.14863326306298
H         2.82465715486400    4.53279615642770   -2.77657265226427
H         2.51552614159514    4.73146604579528   -0.19447454823283
H         0.29809100442147    3.22562160542955   -1.65283472941723
H         0.51886073946648    4.99362646154147   -1.68187154047795
H         0.17523255431695    4.16498225854448   -0.13121383823537
H         1.68416297105415    2.22218054911883    0.52818229771880
H         5.60571644511529    2.76736062133868    1.89981156873957
H        -0.06448560988808    3.28877233739594   -4.99207052785980
H         3.97768430636735   -1.63325288682797    1.46183853803964
H         4.94092506786729   -0.11457092755635    1.58321600773037
H         5.13116857376143   -1.20905734174595    0.17109279276530
