36
 energy: -50.513501020049 gnorm: 0.294301852261 xtb: 6.4.1 (79825abcba525fcdf90b791dcacef51065a7a4e7)
C         3.89407886465127   -0.64824476216053   -3.70357218468993
C         2.99313207315540   -0.64151790707987   -2.47732123198973
C         3.38545945855628    0.43063247529136   -1.38980395023577
O         4.74622350345694    0.86270839881569   -1.55930375673209
C         2.32126456199387    1.59964267682159   -1.37246294279312
C         2.67407332508871    2.68230781254631   -2.48108672242731
N         2.86634599816152    3.89969650107740   -1.68549756715617
C         1.97565292835067    3.84274739244926   -0.51690363055281
C         0.48426319516036    4.07377838140663   -0.76768457007587
C         2.28439223127144    2.40564282801721   -0.06375535457285
C         3.61412989666262    2.42976824878544    0.67219119175194
C         4.81064198940981    2.88682246030245    0.91613832341411
C         1.59430178866116    2.68528966128956   -3.55089508553482
C         1.01111290933190    3.17005430030710   -4.61152641241601
C         3.19811031336667   -0.32240105075820   -0.03269977528405
C         4.35555179419791   -0.96872000648154    0.67499272773947
O         2.03055631729341   -0.53403051429406    0.33531126755125
H         3.88081456937927   -1.60461750786184   -4.25345962668016
H         4.91488270221726   -0.40934154423028   -3.38876524940147
H         3.64299173922357    0.17324928749902   -4.36959624505748
H         3.03325526630671   -1.66288121543124   -2.06850185894510
H         1.95941729160255   -0.34281904552139   -2.69196028817987
H         4.84863386481932    1.63015762523627   -0.97119615065507
H         1.28504154678420    1.24761280201880   -1.50522926289290
H         3.62280418661882    2.51890029644608   -2.99092671281618
H         2.67771976990587    4.75145189070882   -2.21075243598074
H         2.40800081068379    4.59606043181806    0.15242523739493
H         0.18770592717450    3.68060644051922   -1.74561420661134
H         0.30615659632440    5.15373952408053   -0.82175291345395
H        -0.07571081963475    3.68321271494633    0.08989097655290
H         1.56956182101335    2.05493343013726    0.68815841914080
H         5.76578299677855    2.85267012376539    1.38813250994762
H         0.27900470916091    3.23652429497491   -5.38312288605593
H         3.96418403257575   -1.76596214282968    1.30452528905887
H         4.97171633993994   -0.26997627860279    1.24987549129180
H         5.00803368337948   -1.53467515232952    0.00428226982012
