36
 energy: -50.508407773515 gnorm: 0.305059453171 xtb: 6.4.1 (79825abcba525fcdf90b791dcacef51065a7a4e7)
C         3.08832665276445   -0.34808270789337   -3.84241001111203
C         2.92455559383022   -0.75954595777759   -2.38662197378046
C         3.39084662110065    0.34126565582416   -1.35856188969205
O         4.75666052944576    0.70128261740551   -1.62696223449320
C         2.46435049594836    1.62079623026466   -1.42022861563429
C         2.96681492268538    2.75500022736521   -2.41360432974520
N         2.68395995576870    4.04442591019026   -1.77380701583607
C         1.85595062263663    3.82535338917285   -0.57856774750551
C         0.34618441052171    3.88885197253212   -0.81748959754121
C         2.25372334157076    2.41232876467778   -0.11914298732726
C         3.54855324700343    2.47803149236525    0.67426753525572
C         4.56878452224516    2.77860075305906    1.42847982487544
C         2.18936224463237    2.75717003046835   -3.71973145293663
C         1.43650064509013    3.38898484666176   -4.57650114929765
C         3.29604187913413   -0.37399890067712    0.02826889199700
C         4.62480395996585   -0.67609628064613    0.66179567005941
O         2.22941551997944   -0.80819596644693    0.49429743971331
H         2.57944004489300   -1.06255526798510   -4.51156197598530
H         4.13450392466917   -0.45607500210621   -4.14583942650768
H         2.83202016697678    0.66929128396529   -4.12656210426649
H         3.56037816188369   -1.65376934953197   -2.29706555098688
H         1.90551848239086   -1.10314424573611   -2.16899670061644
H         5.34276189842039   -0.07305457209259   -1.57980448138280
H         1.47277532364894    1.32712668513295   -1.80212775482438
H         4.04083088688788    2.78997304634574   -2.59247774953753
H         2.41404001958769    4.74599607426284   -2.46075847698471
H         2.14749360208089    4.57656327215484    0.16513431780446
H         0.10728018632573    3.30706250065194   -1.71377222360638
H         0.14523635799851    4.95895281137285   -0.94184993251328
H        -0.24100441556553    3.46107737713441    0.00334317034139
H         1.46535089339949    1.92548378860621    0.46464188097922
H         5.32333183894645    3.06096641076316    2.12645346576950
H         0.82363746866496    3.71371395264040   -5.38564362332662
H         5.39919211466564    0.08756950745766    0.61475799563401
H         5.02365159554837   -1.60532844082894    0.24246298340394
H         4.49819744444578   -0.83531250593052    1.73627756928566
