36
 energy: -50.510396089620 gnorm: 0.305712326884 xtb: 6.4.1 (79825abcba525fcdf90b791dcacef51065a7a4e7)
C         3.08529332221492   -0.50356785051956   -3.82944746409132
C         2.79827589633524   -0.66142474806237   -2.34346497528314
C         3.29182216354898    0.47269955478722   -1.36556150801013
O         4.61920121384281    0.97211889809091   -1.60166266548995
C         2.33599576173212    1.73146981073973   -1.40147309403684
C         2.78617494450641    2.92431594052102   -2.35023083592426
N         2.12572074037829    4.11918982407933   -1.81353471951059
C         1.75159776814996    3.84924717576587   -0.41734272825984
C         0.23887963411014    3.85577283136217   -0.18897683372558
C         2.34170309989480    2.47549607845448   -0.05607215618933
C         3.74699391778109    2.58532762156738    0.51269520170482
C         4.92429445568086    2.60770203908396    1.07261726564373
C         2.51982083953128    2.80370880166763   -3.84184564050421
C         2.57017339030580    2.81330773119047   -5.14469530591668
C         3.22443577269103   -0.28631037052620   -0.00055090944720
C         4.52472582904882   -0.88307734940840    0.45916922805796
O         2.15278286123485   -0.51464392439801    0.58496195062663
H         3.12379296952366   -1.50404307816704   -4.29287822015148
H         4.07255125816671   -0.05128848844860   -3.96722907678844
H         2.30595973026168    0.07585874704411   -4.31769866492697
H         3.30815097900037   -1.57582033664210   -2.00312063855155
H         1.71309135074967   -0.75310115728728   -2.20994675088494
H         5.09697072975297    0.32017200671291   -2.14206833964775
H         1.32175078604868    1.36213737154556   -1.62555059397231
H         3.85704389884419    3.09537039459534   -2.24674598504072
H         1.40245363271149    4.42722892227176   -2.46080311081920
H         2.14189625152459    4.64422286370878    0.22925382090098
H        -0.17159157383339    3.00187038428595   -0.73783087539452
H        -0.20142164508018    4.81900589433555   -0.47054079098649
H        -0.02619654912889    3.72578181092608    0.86666761513821
H         1.77702860404799    2.00332130522528    0.75482093335954
H         5.73899446020408    2.80050811789389    1.73241187706316
H         2.29834600847783    2.97842314424486   -6.16185239253314
H         5.26094395480787   -0.10911832990160    0.66903895263878
H         4.84854405963364   -1.57684162085467   -0.32327861999693
H         4.35809142963398   -1.45562628634697    1.37585404772582
