36
 energy: -50.507118081276 gnorm: 0.304775589332 xtb: 6.4.1 (79825abcba525fcdf90b791dcacef51065a7a4e7)
C         3.06174854938076   -0.50448727246619   -3.88855581998504
C         2.74892673354989   -0.71441218689996   -2.41427097059429
C         3.42557687732044    0.32540951320070   -1.44111297403839
O         4.79786644705069    0.53151911502444   -1.81719641043497
C         2.55483196214391    1.64455524236902   -1.47358103202398
C         3.12213765122913    2.92380480715148   -2.22682024521863
N         2.69507241656330    4.12642940028846   -1.50344241927252
C         1.75833421848337    3.74137781383533   -0.43740023146822
C         0.30184762785760    4.00300046542924   -0.82561424490436
C         2.21784360173329    2.30654376983759   -0.12750473135822
C         3.50746034007501    2.31076963205097    0.67702770022876
C         4.50961995658875    2.81237788532718    1.34344739417453
C         2.52356118898471    2.86649104890311   -3.62282410303380
C         1.55722643991163    2.94503193812482   -4.49464594788579
C         3.29372262417033   -0.30162647396126   -0.01516372400981
C         4.60136885116612   -0.47395358680577    0.70496985804744
O         2.22692128433186   -0.78178693409459    0.40290603211786
H         2.66788611951444   -1.35824977519045   -4.46575851151974
H         4.15430694215021   -0.50560372261841   -3.95588741120109
H         2.60816639669380    0.40337031160782   -4.27784119774469
H         3.20312561847241   -1.68501933354063   -2.16217712438911
H         1.69629826269681   -0.73066586850363   -2.10513296813790
H         4.85967788729875    0.98807284585172   -2.67339427716075
H         1.63488994148125    1.33721077839210   -1.99756207984860
H         4.21075594608261    2.89113565514877   -2.25073711578346
H         2.53748889673752    4.93896143229614   -2.09666994723701
H         1.89602606227559    4.34884525877489    0.46505786450567
H         0.00253951875108    3.43313009035659   -1.71135640277599
H         0.22608445547152    5.08824232817206   -0.95779388019877
H        -0.40756691956982    3.63565715740088   -0.07505568949417
H         1.55124150456927    1.71400943365951    0.50802546085268
H         5.46384917101381    2.95332995195347    1.79711947715681
H         1.01036523367730    2.95819113907968   -5.40926688473033
H         5.26024318599969    0.38052235683496    0.56064221818473
H         5.04192777349898   -1.36707979294838    0.25040945168946
H         4.47473868099664   -0.69139831411810    1.76919396691577
