36
 energy: -50.521467000306 gnorm: 0.305850713350 xtb: 6.4.1 (79825abcba525fcdf90b791dcacef51065a7a4e7)
C         3.59319878523003   -0.12761684630971   -3.83263049606089
C         3.13332345567560   -0.64474319128313   -2.47744165366862
C         3.42109060975515    0.37978811877980   -1.31397840765176
O         4.79165071963331    0.80575959775088   -1.39890110836442
C         2.40605981434742    1.59184608506568   -1.30904747106894
C         2.82080421516110    2.61780914213390   -2.44969263424502
N         2.87389690877462    3.90693474858839   -1.75162211881456
C         1.96421293019984    3.81073449321133   -0.60035772648247
C         0.48368472579039    3.99435814891497   -0.93922098747159
C         2.42496159216481    2.45552925313857   -0.03727491222504
C         3.81849203039085    2.67637980620926    0.52814482309878
C         4.99631811727601    2.94059320086305    1.02106151865996
C         1.77162283292047    2.63597021158824   -3.54937166402732
C         0.78917362674356    2.84928459239948   -4.37963387600448
C         3.09575786630655   -0.45561010484211   -0.03329134188927
C         4.25623570117329   -0.93440104201275    0.79270993284072
O         1.95057008251735   -0.87978018623384    0.19480112779879
H         3.31924961521559   -0.81259564460835   -4.65296997937923
H         4.68079507208001   -0.02621895568649   -3.90384435044903
H         3.19527670825911    0.85641915642550   -4.06675959146804
H         3.56487622223473   -1.64407333777424   -2.31304084046017
H         2.05105054814848   -0.82329390145341   -2.50317448996505
H         4.79826191609511    1.61780416870537   -0.86422675598638
H         1.41430243121637    1.14159349671610   -1.47934121292137
H         3.82247615009964    2.40297598273428   -2.82013712523172
H         2.57374829495478    4.67259677518981   -2.35214876048687
H         2.18530656599795    4.58737867094104    0.14149656039505
H         0.20925905951194    3.28443432364358   -1.72635215581138
H         0.36393876024802    5.00592282382550   -1.34339820909856
H        -0.18709516203135    3.93464820171200   -0.07432948281350
H         1.77557991890938    2.15011898132215    0.78999886715498
H         5.91662926052332    3.14622545143365    1.51803432263446
H         0.03091602807734    2.80261951918709   -5.12704912827725
H         4.03493346482059   -1.96109686940096    1.07905936701529
H         4.27579845811729   -0.34317144693787    1.71382697834484
H         5.19915428219452   -0.91085199783612    0.23932005450564
