36
 energy: -50.520560564615 gnorm: 0.298127984474 xtb: 6.4.1 (79825abcba525fcdf90b791dcacef51065a7a4e7)
C         3.47131117313848   -0.67006300184790   -3.76694026242670
C         3.05210817560451   -0.72039812223789   -2.30503158134978
C         3.37762514257343    0.45053572318757   -1.30050497038717
O         4.72888220683023    0.86506421698484   -1.56388507489475
C         2.33383678790254    1.63346687908053   -1.40334524773687
C         2.63454661244999    2.51051726079826   -2.69409724656661
N         2.93951353264517    3.83534736017770   -2.14292896452332
C         2.35414850742564    4.02435411750980   -0.80733420626151
C         0.88933271333715    4.46571065093037   -0.80196441371408
C         2.45083733919202    2.60653658403631   -0.21879571298499
C         3.74728711649870    2.44018020292857    0.55705553423761
C         4.54500425498478    2.69601814196186    1.55617728442519
C         1.55233590335464    2.52467913608264   -3.76134828378173
C         0.42540347502624    2.41294394190034   -4.40755516889031
C         3.21331979641896   -0.20871602686535    0.10743034627952
C         4.42858524195452   -0.87220925747572    0.69149739282551
O         2.10965627285354   -0.21815648485211    0.67772782064074
H         3.32360300991787   -1.62179870330823   -4.30506889238251
H         4.51601814537420   -0.36177767442495   -3.87541204236827
H         2.81495322015775    0.00366815517059   -4.31170244223319
H         3.45998546142859   -1.62131076898452   -1.82138016816856
H         1.97181602381820   -0.91049034948000   -2.27874475469889
H         4.92464505780358    1.50141128899331   -0.85531181312057
H         1.29457030087816    1.26666020677643   -1.42957705894207
H         3.52050098330612    2.10672566217700   -3.18273440643332
H         2.75885463354658    4.62153784756810   -2.76440032321954
H         2.98174993241472    4.79066546734205   -0.33691978822529
H         0.22071326748555    3.74349988584972   -1.28179397658932
H         0.79850823013635    5.42854108677658   -1.31739615589774
H         0.58286799456434    4.66358885641771    0.23170470554745
H         1.66005556071248    2.35816394818445    0.49697600003586
H         5.51159259114487    2.71322725379290    2.00523193615741
H        -0.33229246166263    2.35115174222562   -5.15444228606883
H         4.19036309664821   -1.93416235655255    0.71559777804595
H         4.60105453077475   -0.43965881511915    1.68222753171841
H         5.30897566646721   -0.72070839289620    0.06074343337030
