36
 energy: -50.519514381399 gnorm: 0.303619767298 xtb: 6.4.1 (79825abcba525fcdf90b791dcacef51065a7a4e7)
C         3.37837716049687   -0.31408722475653   -3.85982681002347
C         3.11415977691199   -0.69714100196449   -2.41106846124695
C         3.39906348329999    0.41443055921254   -1.32969913572158
O         4.74356310473726    0.88695047130285   -1.51981570620213
C         2.42913496471566    1.66164999311116   -1.38518521667980
C         2.82160038648560    2.74231728884240   -2.48236961499837
N         2.83702691199343    4.06304366154932   -1.84408285832055
C         2.00864048152471    3.96527211219496   -0.63313043368101
C         0.52322923764375    4.19388572405866   -0.91913563948774
C         2.31832566357108    2.54458776190576   -0.13144937857201
C         3.56476330382475    2.42692181501232    0.73049580283737
C         4.63382261274472    2.15870773285487    1.42707552065286
C         1.86012609891446    2.63062588554673   -3.65433277026164
C         0.98715091174213    2.83747066738514   -4.60046933588172
C         3.27660799121809   -0.33723150555566    0.03554800388462
C         4.49982832866163   -1.00524378809135    0.59743702436736
O         2.18704707520874   -0.30234614331500    0.63140161258782
H         3.02069014426844   -1.10059566611770   -4.54587742122202
H         4.43423952095684   -0.24417139508457   -4.13997869962434
H         2.84680535067795    0.60379615110109   -4.09732794202171
H         3.71953937001597   -1.58912055472306   -2.18787753399285
H         2.06304601046933   -1.00638446924522   -2.35288329481883
H         4.94136736997021    1.43929575187720   -0.74449324327914
H         1.44333416379025    1.23991749680222   -1.64140496453265
H         3.82285566497391    2.57677869717615   -2.87836700198258
H         2.37478843557592    4.72262768256906   -2.46717537954773
H         2.32212994732615    4.76345859060514    0.05026480603782
H         0.30835953077804    3.83964114276105   -1.93265354644501
H         0.22758147457600    5.24505993998464   -0.82647183428388
H        -0.15598820255406    3.73080479521223   -0.19403704338913
H         1.49235632415722    2.20316094363884    0.50144579136115
H         5.48515893758439    2.16497481744924    2.06850080728449
H         0.30048167482252    2.65257914848637   -5.39423396319650
H         5.28675080619083   -0.87141783893250   -0.14277823440819
H         4.35805876212484   -2.08030664345612    0.74754696060032
H         4.78922702441646   -0.68491629048866    1.60219025471509
