36
 energy: -50.519605981904 gnorm: 0.307685708482 xtb: 6.4.1 (79825abcba525fcdf90b791dcacef51065a7a4e7)
C         3.39273017935950   -0.34323152848502   -3.84498753212078
C         2.89394693046044   -0.64610504729972   -2.43966739954013
C         3.33731765206769    0.37392775825508   -1.32204646910547
O         4.69222075490208    0.79732197757303   -1.55024265862444
C         2.32551133191311    1.58817209254405   -1.28662039897969
C         2.73787116578963    2.59135939331026   -2.44819652569749
N         2.93956844719592    3.88420152515340   -1.78498952572153
C         2.04913788571030    3.86134543956463   -0.61503219965176
C         0.57625577139386    4.11162158483319   -0.94441018158214
C         2.36611660179357    2.47420302341695   -0.03082911976210
C         3.74163839964513    2.55834917782646    0.61046704003849
C         4.83938719535467    2.81081158281369    1.26717108386838
C         1.71954307976549    2.67162788168118   -3.57379425149738
C         0.97623306799963    2.93601386408770   -4.61188628588333
C         3.24133359597645   -0.45516299907432   -0.00019681422496
C         4.49292063261962   -0.89879438454071    0.70332912554502
O         2.14817425905768   -0.68418925821538    0.54381708887402
H         3.24857158910557   -1.21276672887188   -4.50855953837226
H         4.46196278662545   -0.10940575925579   -3.82808281691361
H         2.88540519871783    0.43932206996118   -4.40330329851478
H         3.35087305409180   -1.59801144792019   -2.12818884665461
H         1.80389508707789   -0.75503655221407   -2.50113351564914
H         4.82087992193587    1.56954972970965   -0.97365973112571
H         1.32574218887249    1.17868134692539   -1.50591255844600
H         3.68690104763778    2.21020784563625   -2.82342293142264
H         2.70902056360288    4.67341345763980   -2.38578231307286
H         2.38732111025269    4.70589870481115   -0.00284902039675
H         0.04393529510629    3.24258903131392   -1.34477762617142
H         0.48441309392479    4.92409834116544   -1.67407301943316
H         0.02241132655950    4.38193156462947   -0.03791302263370
H         1.61223195157112    2.17549336050799    0.70523091364611
H         5.73090877413442    3.11564839360272    1.76567183668367
H         0.41324958033344    3.01438949073318   -5.51336763808724
H         4.64853875956059   -0.22706268049977    1.54572719851741
H         5.39350639209452   -0.89511778649309    0.08097591941364
H         4.42779054805002   -1.95359778618409    0.98446649651652
