36
 energy: -50.509916111961 gnorm: 0.294863950584 xtb: 6.4.1 (79825abcba525fcdf90b791dcacef51065a7a4e7)
C         3.34185450059235   -0.28329349529214   -3.89503326139336
C         3.15931243371629   -0.70734196853798   -2.44510117223786
C         3.44198092916276    0.44862243063440   -1.41070961187846
O         4.79908592005728    0.88797668475074   -1.59052193814194
C         2.40386337761684    1.63816200999505   -1.49258688288492
C         2.84012677042988    2.78295172853967   -2.50491847448823
N         2.59990248235315    4.03381022252714   -1.77717441335974
C         1.98994974763433    3.82661950151773   -0.45535037495806
C         0.47758111401203    4.05265393161821   -0.40888228323654
C         2.24468695040847    2.34371664471359   -0.13591194542620
C         3.51455924707801    2.30257219883403    0.69843395753523
C         4.55509419181818    2.71031475876628    1.37006105800732
C         2.11519971934201    2.67267246949628   -3.83635553772083
C         1.34918659128674    3.07491418081668   -4.81178894445207
C         3.24077193778070   -0.27796247320117   -0.04122785761702
C         4.43027956710303   -0.74527082113538    0.74929233515470
O         2.04761585235487   -0.54049154305866    0.18429053432680
H         3.32154815818999   -1.16907894564795   -4.55243174051509
H         4.32914261716182    0.17290615664403   -4.01897954965408
H         2.47727600303393    0.33155120462352   -4.13158195984945
H         3.90927974956144   -1.49772380475581   -2.28771075443753
H         2.14709807710023   -1.11372662345258   -2.32622818425249
H         5.38204668686314    0.13753201934713   -1.38478836840138
H         1.41244613865464    1.24498744965140   -1.77154151832187
H         3.90965822163947    2.65803318553908   -2.66992427183722
H         1.98006746783182    4.59418054055421   -2.35919626630344
H         2.49610721383781    4.52929876932049    0.21729575833113
H        -0.05512334986563    3.26700536151547   -0.95464692133596
H         0.18955878622510    5.02306678117007   -0.82876733238172
H         0.15134662649005    3.93250600995764    0.63067713814476
H         1.47537417499599    1.89470103881219    0.50118832941547
H         5.49362536653174    2.69234607731356    1.87511114494276
H         0.60154654853439    2.76484247086567   -5.50507943422784
H         5.16829940319896    0.05374410297830    0.79375434133525
H         4.86387931902724   -1.64363201843707    0.29837088122477
H         4.12393177304597   -1.06970166803829    1.74768405164225
