36
 energy: -50.505164848754 gnorm: 0.301562589590 xtb: 6.4.1 (79825abcba525fcdf90b791dcacef51065a7a4e7)
C         3.21165606328268   -0.47292531421076   -3.80789708925680
C         2.94865156444798   -0.72098503410149   -2.32981157808387
C         3.48463363919687    0.40455280637112   -1.36440552711772
O         4.81952108852676    0.83901788736166   -1.67491181487669
C         2.47311285522230    1.61572413168677   -1.46076964431240
C         2.91613090832419    2.78383903656189   -2.44307663788137
N         2.86733624414248    3.99872468245482   -1.62232207937064
C         1.91863690805992    3.73299568661838   -0.53074212161000
C         0.45552907942115    3.78428500063143   -0.97480814211061
C         2.24221956564726    2.29236548410078   -0.09968326806582
C         3.49489556035420    2.42223232298888    0.75139783896009
C         4.54110249267223    2.88841826116025    1.37443206959245
C         2.04165920284672    2.99907068819697   -3.66756833260427
C         1.16697006701177    3.46033144766790   -4.51739314809859
C         3.32176793370205   -0.33543743448952    0.00299350808579
C         4.58142454316459   -0.72573640314856    0.72352080329051
O         2.16032903312191   -0.61896245882695    0.34074300169732
H         2.59289993918658   -1.21055140400420   -4.34664525175953
H         4.20291966640560   -0.66625076779640   -4.23008231224558
H         2.91877964376738    0.54624174243041   -4.04665885578590
H         3.31240034462155   -1.72340354969404   -2.05637035580967
H         1.86165600111867   -0.80663425765847   -2.20749218003366
H         5.38603275274674    0.04915353310225   -1.65220524907328
H         1.45571852714092    1.35134491106246   -1.79291790675307
H         3.93836312413602    2.70519392265066   -2.81129573416637
H         2.58161411151363    4.72431393637313   -2.27718303911695
H         2.04011984166558    4.48219625473172    0.26067860488103
H         0.19432441900663    3.07204166533926   -1.76433858481439
H         0.27137335954032    4.83035971747383   -1.24457800035601
H        -0.15447140852598    3.55021876502869   -0.09466005229604
H         1.44721781995907    1.76413525025454    0.43725151407682
H         5.41922728231038    2.81201464328208    1.97384725996773
H         0.61509434565482    3.63780867769694   -5.41165082256962
H         5.38981775227552    0.00292564879868    0.69848043975391
H         5.01024983758174   -1.67912144002436    0.39862455263068
H         4.34372323345764   -0.87556655053927    1.78037432948442
