36
 energy: -50.517552998259 gnorm: 0.307784705038 xtb: 6.4.1 (79825abcba525fcdf90b791dcacef51065a7a4e7)
C         3.00519383493132   -0.44714206863322   -3.64594619926219
C         2.95001900310786   -0.82579374513005   -2.17318674027030
C         3.39844310607816    0.36509484002684   -1.24215437007672
O         4.79389761177157    0.52682930528201   -1.54817276499722
C         2.45948527760861    1.62815687529581   -1.39191691647831
C         2.84980056879725    2.58386084889562   -2.60020842702983
N         2.92489367076285    3.92912621776967   -2.02004619860861
C         2.10960775763919    3.92023742230588   -0.79635547290606
C         0.59319900641335    4.10288846869686   -0.88383583255070
C         2.51318022922502    2.57069046824978   -0.17846785865007
C         3.94055713354358    2.69669529552080    0.32860167312489
C         5.00300604191476    2.85292419001424    1.06809118045321
C         1.75057916719491    2.44399020069642   -3.64066693233222
C         0.96555826607845    2.74363543937652   -4.63766228633580
C         3.12146473541341   -0.23272757983801    0.17551353072066
C         4.36237356732146   -0.80078408501562    0.80454830417924
O         1.98068256301052   -0.28273316597753    0.66491823261008
H         2.57613257151415   -1.17850026704558   -4.35179504121319
H         4.07416169138415   -0.34576767982346   -3.85866570170116
H         2.58830705038023    0.51081262509566   -3.94596866620638
H         3.63786613731306   -1.65705851895018   -1.95457438514325
H         1.95869120971309   -1.12224456523471   -1.80816167211684
H         5.09853427616448    1.30480263417855   -1.05088939052109
H         1.47964261122462    1.15017751853164   -1.55548385598523
H         3.76886540918001    2.28201983951593   -3.10114844053224
H         2.64218051181754    4.60807441065402   -2.72436316904128
H         2.56264691657644    4.72054994074164   -0.19914382662935
H         0.16559169610588    3.44341717527305   -1.64615227613431
H         0.32888379404027    5.12572580181256   -1.17521646014665
H         0.11004880251122    3.83321678089026    0.06241535617666
H         1.78843955721858    2.30907483714818    0.59977510970002
H         5.88758970710995    3.04635283529272    1.63052900204057
H         0.08466296040607    2.89904178524830   -5.21700166506602
H         5.12136704306838   -1.00751331447918    0.05204121057643
H         4.20851196319337   -1.67393724490426    1.44667127234418
H         4.69160513240427    0.04815489227295    1.41018809957643
