36
 energy: -50.518104989698 gnorm: 0.307846579332 xtb: 6.4.1 (79825abcba525fcdf90b791dcacef51065a7a4e7)
C         3.31790992460001   -0.40398410092660   -3.79719302194100
C         3.18855271402782   -0.77952589424612   -2.32828974154415
C         3.47495692049435    0.37222819781868   -1.29023569193454
O         4.82425302182375    0.79965090062349   -1.54283904252423
C         2.39190277381869    1.50778636194453   -1.48232347501548
C         2.75635682763963    2.63754914073138   -2.53896618421148
N         2.91474612092108    3.90784725132764   -1.82257128526900
C         2.01920203185794    3.83841915049063   -0.65836784078764
C         0.58159055972640    4.22545381228919   -1.01048594625225
C         2.18938446411747    2.37185568077630   -0.22690246287136
C         3.42067220237215    2.35763216676351    0.66423714496878
C         4.63757515949746    2.42829531936388    1.12705875426550
C         1.65909190439104    2.66057112028952   -3.59057689969126
C         0.81992798731495    3.16351572154589   -4.45249075697912
C         3.33938181181938   -0.24642409469740    0.13902273988316
C         4.54220722603980   -0.95255168695593    0.69832812314897
O         2.26153323636319   -0.21713707154235    0.75610150864115
H         3.02067494494310   -1.30280461022540   -4.36373872312028
H         4.39103934446332   -0.23412639369207   -3.93046056902940
H         2.65979049994642    0.42863237196598   -4.03195652034132
H         3.90060941742016   -1.58156801422981   -2.08003613235754
H         2.21967483095170   -1.18477458161703   -2.01063216923593
H         4.92966154087612    1.68144486714260   -1.14702949500518
H         1.41858537716652    1.05091812053034   -1.72570532809883
H         3.61845573908386    2.47308768518416   -3.18430871446466
H         2.78978314452310    4.72673717263149   -2.41482404073993
H         2.48053965270161    4.51435352814444    0.07148603280357
H         0.31472848628491    3.82342180579884   -1.99335504333271
H         0.54797764208495    5.31089653845665   -1.15761064442197
H        -0.13419625477385    4.05582861673534   -0.19782071191057
H         1.32377925781486    2.02865827093358    0.34954969280122
H         5.53484126780890    2.58646696917150    1.68035296788919
H         0.06642238608056    3.16181458623881   -5.20614068770545
H         4.99292288087763   -0.27525181853718    1.42165051730736
H         5.27505605836235   -1.18613202379530   -0.08062281028780
H         4.26723896343482   -1.79646524930068    1.33714947314647
