36
 energy: -50.515656933792 gnorm: 0.309716637527 xtb: 6.4.1 (79825abcba525fcdf90b791dcacef51065a7a4e7)
C         3.42555758983504   -0.59266793242244   -3.60829820684522
C         2.98286315091916   -0.86433463939001   -2.17803228302502
C         3.31095558605535    0.35536325318672   -1.23420312692150
O         4.68387175576220    0.69267982361267   -1.49577017842245
C         2.35068220283284    1.60164194342185   -1.38931862552894
C         2.64661140326124    2.42866143537582   -2.71376159792109
N         3.04320199043144    3.75158565066158   -2.21923804597796
C         2.39624213612309    4.01040955403231   -0.92438582748253
C         0.96208200269648    4.54105382315494   -0.97033256730192
C         2.55738723548171    2.62999663939181   -0.26527636476444
C         3.94988222210849    2.76833926760081    0.32820539351044
C         5.14179370070257    2.68320712066361    0.84988484511461
C         1.40188364733968    2.48213033304915   -3.58450800526905
C         0.24108013343325    2.13595395081488   -4.06694137705256
C         3.05889405190725   -0.13885599450762    0.22733828077206
C         4.23681542805360   -0.72268573959985    0.95526117338077
O         1.91095773223909   -0.02625471440254    0.68881922201797
H         3.40204707098676   -1.54725930736785   -4.16093148085712
H         4.42302547085869   -0.14802224346299   -3.68290830334568
H         2.64906873175592   -0.00269330494525   -4.08838180575915
H         3.46436675400420   -1.75981744676900   -1.75590554268656
H         1.90244384283789   -1.05289654934829   -2.14647745257239
H         4.86031297665549    1.61370035856214   -1.23900876757367
H         1.28236674540870    1.33648748513179   -1.45018952371769
H         3.40962184392908    1.91345224682078   -3.29608766252029
H         2.83927073478271    4.44752871099146   -2.93410522069974
H         3.04267442807445    4.80205142375628   -0.52710154427839
H         0.40358577499747    3.93820315110122   -1.69388615469128
H         0.91365552649341    5.62145617317548   -1.14738355519597
H         0.47021748061155    4.37259860778998   -0.00532459484399
H         1.92909312893510    2.46131539031088    0.61571572697722
H         6.17956380203011    2.59354640444129    1.07623276865015
H        -0.59024490654224    2.11084321719869   -4.73329708363183
H         4.31244697153085   -0.29830631756420    1.95488959179938
H         5.15038867717465   -0.52450307886765    0.38561277557232
H         4.11469975141219   -1.79754736630925    1.11541925852731
