36
 energy: -50.517825921295 gnorm: 0.300614345927 xtb: 6.4.1 (79825abcba525fcdf90b791dcacef51065a7a4e7)
C         3.71208660475050   -0.48420684420403   -3.67902104067199
C         3.12413301266936   -0.71068205144013   -2.29393572650397
C         3.43163101385765    0.49421264764443   -1.32450558279802
O         4.80070735300404    0.87646836294032   -1.54039702520178
C         2.35049087455628    1.64328739908898   -1.42530014630739
C         2.84414247883465    2.63665620088045   -2.56337353196383
N         2.77394241162800    3.96167431737611   -1.93778176819026
C         2.04393060266599    3.90758967714394   -0.66249877009999
C         0.54204770540774    4.06009721741812   -0.91069008515390
C         2.29358479538832    2.48306277371941   -0.13873482338269
C         3.53865839618072    2.39744729713901    0.72894208936825
C         4.75479797313908    2.57451809789474    1.16448810056625
C         1.81898914072417    2.54992426314836   -3.68227640232771
C         0.74096165926960    2.99428403685859   -4.26575390604525
C         3.21509263906796   -0.19070338765060    0.06397995846715
C         4.35239809208443   -1.06645287427607    0.50875721878207
O         2.12415588156439   -0.13380127481444    0.65560536966097
H         3.42537319881423   -1.29750709751765   -4.36716280765828
H         4.79210150290358   -0.31861342452090   -3.74509119813875
H         3.19903158648083    0.34375565023982   -4.16145023104567
H         3.55295448184341   -1.65545322224221   -1.92590618994575
H         2.03793628266057   -0.86531699041048   -2.30497555978236
H         4.95379954513814    1.69442500111574   -1.03755861260785
H         1.39629658063042    1.17299494055605   -1.71452031147447
H         3.84320770651616    2.40543467502944   -2.93097978669655
H         2.44258778753042    4.69492997908003   -2.56188113484516
H         2.49706392545705    4.71693374339289   -0.07765801273619
H         0.19903816843584    3.32269800469534   -1.64380918723704
H         0.29860020102481    5.03179849451704   -1.35509007513791
H         0.00443158435497    3.90368062909165    0.03167449845093
H         1.45129019880759    2.17481657787112    0.48965835675282
H         5.61070314065754    2.56395813912774    1.79974712047461
H        -0.02873131485315    3.07320524685732   -4.99862904819911
H         5.23525716996199   -0.70386692719961   -0.01485167900875
H         4.10954575480392   -2.10234872574789    0.25120281052902
H         4.45997870256125   -1.02839211429764    1.59635464272313
