36
 energy: -50.519345827964 gnorm: 0.299776396842 xtb: 6.4.1 (79825abcba525fcdf90b791dcacef51065a7a4e7)
C         3.09137315018489   -0.64092209557978   -3.58576830026332
C         2.89467303363459   -0.87806522363958   -2.09562939157042
C         3.30748601185479    0.35186712401526   -1.19954183679205
O         4.70455635697456    0.52135545219186   -1.49376406056580
C         2.41805600928520    1.64356117620479   -1.39913403544520
C         2.81717677781440    2.46614164275376   -2.69903728839167
N         3.00774809515379    3.84068665455604   -2.22335391363314
C         2.29404871592171    4.00459594587569   -0.94822409479724
C         0.79068874082865    4.26843272269236   -1.05218877913872
C         2.56979879537993    2.65941120664902   -0.25513483676764
C         3.97259615683547    2.71697654702770    0.32731459018152
C         5.21889945761268    2.93202841668097    0.64438028864947
C         1.62557557385725    2.37615724522663   -3.63839598202214
C         0.48544611750972    2.57167894283128   -4.23999460317390
C         3.11312582107073   -0.10177220320418    0.28380788018445
C         4.30655032270040   -0.78412461754235    0.89073521853084
O         2.03566721355720    0.00639498012451    0.89272846613229
H         2.88294733335458   -1.61804744092495   -4.05372739050057
H         4.10700399295225   -0.34180267061098   -3.86368948861777
H         2.31400543308981    0.06387280325846   -3.86940336695314
H         3.53897306921273   -1.67041402067588   -1.68454909362402
H         1.85541185125385   -1.10026599798172   -1.82282875427738
H         5.05240271688613    1.40040594622452   -1.26658597334586
H         1.36421128119033    1.34994661681333   -1.53519221687832
H         3.71879634900639    2.04012769130305   -3.13758412535648
H         2.83898755253886    4.55080775471859   -2.93342973281656
H         2.78620447780115    4.79563739509145   -0.36991407325809
H         0.28000499806613    3.77008244327031   -1.88268614245630
H         0.68656950302437    5.35038689729519   -1.19181600093233
H         0.23138098106343    3.92650812515761   -0.17366123314929
H         1.92483803872051    2.37694808082357    0.58367032881863
H         6.02414808360344    2.96340626584956    1.34211182066606
H        -0.45099380697443    2.31352374431432   -4.67839846653401
H         4.68825237184421   -0.04977688265840    1.59792115557517
H         5.07770152098108   -0.92597950165438    0.12680147692092
H         4.05140825142704   -1.67653453754591    1.46900627751865
