36
 energy: -50.523714790101 gnorm: 0.299418926545 xtb: 6.4.1 (79825abcba525fcdf90b791dcacef51065a7a4e7)
C         3.34560577547116   -0.44193110430637   -3.78057979099440
C         2.99846564998782   -0.78537698429870   -2.33940650552316
C         3.41101780639745    0.34615946875923   -1.32178818870594
O         4.78568295494544    0.70390853157879   -1.54407161743131
C         2.47710828774562    1.61754064738749   -1.42570766509376
C         2.78268960693856    2.63485727837915   -2.60781232759657
N         2.77396007381565    3.95778392727088   -1.97397087220522
C         2.07546962661263    3.88305761707463   -0.68218288615332
C         0.55035471967350    4.00272048378180   -0.69684743186637
C         2.48296747756387    2.49388333496604   -0.16249726727989
C         3.86512644396464    2.64081024081312    0.45268613291268
C         5.07903851505707    2.55226516060701    0.92026194301299
C         1.71031291385277    2.48856665906281   -3.67505770925256
C         0.90034455067639    3.01915775791917   -4.54825252669625
C         3.14438924372057   -0.23838623096039    0.10338074474679
C         4.32620132919798   -0.71811722279602    0.89799137122078
O         1.98242795265821   -0.37914504198611    0.51983532036910
H         3.10962046302070   -1.30230514417756   -4.42963172734122
H         4.42363642770839   -0.25367801863191   -3.80566604302884
H         2.81067483864552    0.47825006271643   -4.00103564456134
H         3.49103516133011   -1.70233917295048   -1.98096294602735
H         1.92464018608151   -0.96232827855332   -2.19996370898347
H         5.05700602579403    1.49138537523202   -1.04247341041965
H         1.46653872546003    1.18855387838279   -1.52585546576785
H         3.76792862237350    2.39350275491881   -3.00502909724176
H         2.32809794915461    4.62658608628488   -2.59916717403339
H         2.39660279301852    4.75458940506649   -0.09933454909532
H         0.12673598880038    3.21861460654715   -1.33293068593968
H         0.33809766016124    4.97190790683506   -1.16223339660944
H         0.17304815928687    3.94396388575479    0.33064255659997
H         1.77128390525258    2.15304512857223    0.59690362456677
H         5.99865090965055    2.63869775513415    1.45231612193353
H         0.13048919655490    3.10152393651636   -5.28057783037219
H         5.21908049989655   -0.61179658560062    0.28436468657943
H         4.04569192441922   -1.75222513102407    1.12232830290415
H         4.36905362410789   -0.18271208519462    1.85056440725894
