36
 energy: -50.514598855863 gnorm: 0.296816514565 xtb: 6.4.1 (79825abcba525fcdf90b791dcacef51065a7a4e7)
C         3.71326245629600   -0.07329470356489   -3.87112088677262
C         3.27610224124542   -0.53724886076919   -2.48942654665083
C         3.48987077888473    0.38668000881615   -1.22975217811195
O         4.89444228532511    0.69363934681397   -1.23706057195778
C         2.49012391408479    1.60712465711249   -1.33181768026849
C         2.78461093238746    2.63294059421596   -2.50938444824485
N         2.78959354565851    3.94259103763614   -1.84850853319804
C         2.03359426380641    3.92348411851253   -0.58744186866509
C         0.54523717667072    4.19838021450002   -0.81045542577388
C         2.31358778534550    2.49537142578022   -0.08941516749436
C         3.62106186957225    2.59153999429252    0.67978229494957
C         4.91875200958391    2.64751544619799    0.79343525034360
C         1.78876881287620    2.65969461540701   -3.65742104310732
C         0.73195119699744    2.62102843068499   -4.42010461532591
C         3.04452331548024   -0.46859224615979    0.00072168772717
C         4.15222558746650   -1.07401619615226    0.81600395884677
O         1.83785399375356   -0.62988619216357    0.24838052086431
H         3.65551333056610   -0.87824038244752   -4.62340305521312
H         4.77205515758632    0.20442357796439   -3.86410671420202
H         3.16058848619612    0.75630959422000   -4.30447230887526
H         3.93832857555329   -1.39526142597473   -2.29656160298247
H         2.23423969905268   -0.88114649230092   -2.50010550249287
H         5.05076048709210    1.48613607466563   -0.69590411902727
H         1.53260667422270    1.09304496693725   -1.51673082516190
H         3.76287433125824    2.50852464148278   -2.97225640859084
H         2.53514921545679    4.73773164562346   -2.43157736670692
H         2.39003465101858    4.74948492770869    0.03951847012110
H         0.20545844132251    3.42897656701545   -1.51148695293020
H         0.33051643854412    5.18934331973838   -1.22620600233150
H        -0.06457952392762    4.06959108667138    0.09125694809472
H         1.52269743769785    2.13183410328686    0.57518018571009
H         5.79006337242455    2.54253029098166    1.39844257910496
H        -0.11178615596703    2.90988768149668   -5.00356787966763
H         5.07493341221458   -0.55206886515720    0.56850395636672
H         4.11853418723426   -2.12524713987984    0.51240859838535
H         3.87535219764212   -1.03192563216280    1.87310370680756
