36
 energy: -50.516298507710 gnorm: 0.296816848374 xtb: 6.4.1 (79825abcba525fcdf90b791dcacef51065a7a4e7)
C         3.48794321247249   -0.24913596390183   -3.85950746073509
C         3.38574666864902   -0.76117034936541   -2.43023546988640
C         3.47009138268590    0.38556046259534   -1.35133998792701
O         4.82505352288793    0.86438571744249   -1.39495826108167
C         2.42015919381843    1.55859705888739   -1.49633603876838
C         2.79611328218104    2.69835267748451   -2.53811341090866
N         2.90265386926203    3.91751033009276   -1.72924396283170
C         2.03052006962823    3.78980179129366   -0.55227230686003
C         0.55213851318090    4.06569684375865   -0.83294937175613
C         2.31410026907013    2.32736480366777   -0.16913635451229
C         3.58198760996707    2.42551657279223    0.66346769536127
C         4.70767917940211    2.86391914280315    1.15405061322544
C         1.82273669572885    2.75349945689150   -3.70426184244390
C         0.73025272945562    2.82586677685839   -4.41227775193540
C         3.11252028480702   -0.32999986004887   -0.00820660725120
C         4.27223442482106   -0.90652079840530    0.75397079557498
O         1.93207132365153   -0.57989283019951    0.28758934715535
H         3.49344563229491   -1.09878026586383   -4.56326541179368
H         4.40333886397286    0.34896073011862   -3.80901213653379
H         2.64228212362614    0.36190672503611   -4.16441633378203
H         4.27962995058084   -1.38888931697770   -2.29287559072162
H         2.48830538287626   -1.37494456441363   -2.28279895726017
H         4.83419359557273    1.67530690664719   -0.85861878126679
H         1.41052276594096    1.15782719753901   -1.68429307927502
H         3.78762368749357    2.61694373441807   -2.98197009401335
H         2.93657047060931    4.80361768147198   -2.22986675815535
H         2.39974137684419    4.51455319909752    0.18313055975238
H         0.02568519878630    3.35244300369301   -1.47559439415967
H         0.42438990342026    5.07956640706306   -1.22881578113788
H         0.08158075452543    3.99543080745183    0.15456586097960
H         1.55179054293431    1.87633454109192    0.47492070739800
H         5.62790540997529    2.70747630930763    1.66878214925042
H         0.06700078744144    3.11320509367510   -5.19540948666107
H         3.86864782172091   -1.01102569173430    1.75959079511933
H         5.14230806569052   -0.24485255922476    0.69431557491179
H         4.47210237504808   -1.84603814928158    0.23123728573235
