36
 energy: -50.518845284214 gnorm: 0.312707564120 xtb: 6.4.1 (79825abcba525fcdf90b791dcacef51065a7a4e7)
C         3.33539561970768   -0.50229859154232   -3.78042116803501
C         3.08656255047512   -0.84404991920116   -2.31866540380544
C         3.41443800474662    0.34778078259945   -1.33980977223156
O         4.77072110819965    0.72261093070213   -1.63493195548824
C         2.42169850977679    1.57285587806056   -1.45407111854335
C         2.87443821691329    2.72847223291104   -2.44667481037518
N         2.92022841826647    3.93800337319317   -1.61787821824945
C         1.88830052873384    3.77864186684204   -0.58254354651138
C         0.45836856179660    4.01218768496418   -1.07372646702751
C         2.17464515525396    2.33333427073900   -0.14092656109047
C         3.47693839865826    2.41369232829357    0.63880192469331
C         4.67074688764565    2.60656710772213    1.12631658974985
C         1.89730222221198    3.00070244729249   -3.57870897333008
C         1.05229325838433    3.42833190353357   -4.47488848175182
C         3.28443094495763   -0.35203476168409    0.05204055217500
C         4.56303185416400   -0.80939376242911    0.69564768253164
O         2.16129042120881   -0.55193050821726    0.54397403741740
H         3.45890499184046   -1.34399423115491   -4.48291305809429
H         4.23344037066064    0.12355357430638   -3.78700325459330
H         2.53865788846886    0.11776160643579   -4.18318612153547
H         3.55897587874916   -1.75183442385355   -1.91285866956629
H         2.01945959838932   -1.03622467759288   -2.15068522103729
H         4.98780482371513    1.37025265552301   -0.94299871169273
H         1.47811956823821    1.16430123252773   -1.85162860535805
H         3.81342112691794    2.53435605901136   -2.96374258398338
H         2.79179320072396    4.79558329723278   -2.15175165473659
H         2.13511359761615    4.46361433181667    0.23739693640133
H         0.10496741111602    3.10608824201595   -1.57668589933143
H         0.50874887544571    4.79229474794317   -1.84174743851702
H        -0.17241247093470    4.34506284564958   -0.24134574118338
H         1.45056668608506    1.82704187483101    0.50616872209730
H         5.54173568485735    2.68176135406054    1.73620475517044
H         0.42080964468434    3.68912746995493   -5.29279795222717
H         4.24208683485104   -1.50297535011969    1.47089853071220
H         5.11732538853856    0.00453204351735    1.17384764624831
H         5.20361276644591   -1.16082829191667   -0.11801086871812
