36
 energy: -50.522834953427 gnorm: 0.308226289283 xtb: 6.4.1 (79825abcba525fcdf90b791dcacef51065a7a4e7)
C         2.97156516502825   -0.49856683065635   -3.67159255108016
C         2.93770867792845   -0.80583823602332   -2.18166645155885
C         3.33297024408660    0.37632096006435   -1.21606354700665
O         4.69276854196185    0.72484846948379   -1.52682993279013
C         2.37352226644497    1.61383453145540   -1.43381579479488
C         2.82066088118849    2.52452935776135   -2.65708455458307
N         3.02425266642427    3.84323783410637   -2.04755652336954
C         2.16819429892956    3.97144189947811   -0.85889471251905
C         0.70794268644135    4.35192415436303   -1.11070454428369
C         2.32521414207225    2.57452934407151   -0.23446466659485
C         3.63241591017564    2.48635776169467    0.53615251902441
C         4.77039925050782    2.45771301019264    1.17193808013343
C         1.69214831781543    2.50200287080449   -3.67510090668601
C         0.73158372120118    2.74721674570938   -4.52199558915427
C         3.35580370535195   -0.15239944674587    0.25493076206973
C         4.61320833913425   -0.82311376884165    0.73169435184877
O         2.33738353775421   -0.11227589858489    0.96529118617236
H         2.96978632760042   -1.44497954723735   -4.23860293371623
H         3.90901201550317   -0.03070610267854   -3.98863886876143
H         2.12382803626005    0.09932790745029   -3.99616751446804
H         3.69517339100325   -1.53015871386862   -1.84471954187146
H         1.95711932788154   -1.20703591520877   -1.89646104540248
H         4.90844466863275    1.58197119785661   -1.12166183345994
H         1.41489095975016    1.08929721849661   -1.57940657880566
H         3.76325455269173    2.14737681613982   -3.05205567751018
H         2.94723570838195    4.59659612022802   -2.72834977139330
H         2.67898434601811    4.71503701393657   -0.23554394462129
H         0.18031898913124    3.52898763117463   -1.60392403929861
H         0.64369868147524    5.22326771471483   -1.77221381686930
H         0.18533481958739    4.56670456052559   -0.17139700964862
H         1.49967821156851    2.30054010870680    0.43094815788816
H         5.50038136658656    2.36053768263889    1.94260160532595
H        -0.04106774377895    2.95826249515162   -5.22501135593407
H         4.36477936526962   -1.84028986790052    1.02953796811555
H         5.03429595728622   -0.34131575077368    1.61992158886503
H         5.43737894861833   -0.82205589397783    0.01292314970015
