36
 energy: -50.520050241171 gnorm: 0.307069613967 xtb: 6.4.1 (79825abcba525fcdf90b791dcacef51065a7a4e7)
C         3.21346832980602   -0.20206775081031   -3.80941925125965
C         3.18804276429383   -0.73202702122002   -2.38325709651760
C         3.50016817877301    0.38976629684537   -1.32011150351887
O         4.81467059308243    0.95383856809165   -1.46504070412324
C         2.38342186169528    1.50703361718111   -1.38326017373709
C         2.81745994881678    2.61363331732058   -2.43812156602088
N         2.89746110303541    3.87499834097440   -1.69345774458915
C         1.86101146753708    3.80338885871466   -0.65286494598875
C         0.45460080687963    4.17644259333612   -1.12546381961596
C         2.13032738424484    2.37784773894122   -0.14175410882114
C         3.30541429036162    2.50000681584919    0.81461899873036
C         4.45640599654699    2.39640121814892    1.41838542618812
C         1.80294734073175    2.75443137521166   -3.56121794169111
C         1.06716529408204    3.03984542828569   -4.59910445584684
C         3.41632944365482   -0.37694935746599    0.03967124931694
C         4.72367439507166   -1.00054505821105    0.43992774655236
O         2.36523826662394   -0.47675819312776    0.69438265965812
H         3.10406846246267   -1.03839691817208   -4.52060570034677
H         4.21983239946610    0.20730770825875   -3.94306701561893
H         2.49291308719969    0.58030895615157   -4.03341054209909
H         3.98773386191719   -1.48286255404203   -2.29016403353324
H         2.27337305563767   -1.24871541737768   -2.06660333087675
H         4.78881461198087    1.76796568423008   -0.93413085960404
H         1.38470314354032    1.12873464440765   -1.65668453746023
H         3.80764554577103    2.41638445880864   -2.84721135261707
H         2.73223960081830    4.67305451654378   -2.30400501863324
H         2.07979224504186    4.55496311028320    0.11503965450986
H         0.15102507403925    3.55794971509243   -1.97645447521448
H         0.51573736258018    5.20343177515648   -1.50297800251760
H        -0.16610979444318    4.17108496459012   -0.22200496523368
H         1.33925670197130    1.98086915068224    0.50320255393405
H         5.13445230949964    2.47407787413857    2.23720089094384
H         0.41640372278224    3.07745103585086   -5.44222780536472
H         5.35455776722211   -0.27187929916212    0.94599827780401
H         5.27493071076203   -1.28699091103282   -0.46143621756087
H         4.46513950254176   -1.84619599955713    1.08329744373623
