36
 energy: -50.516356290247 gnorm: 0.307284350900 xtb: 6.4.1 (79825abcba525fcdf90b791dcacef51065a7a4e7)
C         3.19262732152486   -0.45492177004297   -3.67602187009996
C         2.93120830879927   -0.77031662491408   -2.21054312322449
C         3.33683392220166    0.38228009899398   -1.21399422274086
O         4.70416727551025    0.76220028922745   -1.44455600716118
C         2.38084822157932    1.63933286678109   -1.28683657174620
C         2.67436187360543    2.56441457127948   -2.54531106094238
N         2.97715128511213    3.88141017592853   -1.97451579731963
C         2.18209186382767    3.98400920826525   -0.74181831535107
C         0.68625195996137    4.20131672866449   -0.97793300592352
C         2.47117028333093    2.61528310242527   -0.10232216011091
C         3.83298089100199    2.69777761834765    0.56780325526591
C         5.06678409925701    2.87048167816984    0.95244963228140
C         1.57417086602236    2.55402729301300   -3.59406136793490
C         0.96883754831605    2.68685863431656   -4.74121968665819
C         3.13419412808424   -0.29985659528179    0.17795318940055
C         4.38681517892283   -0.90404640817643    0.74727107406655
O         1.99686388267923   -0.55586699929564    0.60730163127920
H         3.12658876146332   -1.38395145664754   -4.26741321376004
H         4.25222746269755   -0.19276169947713   -3.75810882772099
H         2.57298506021373    0.31557128078052   -4.12754063126777
H         3.50955943117080   -1.68328054235504   -2.00094106293252
H         1.87802768421900   -1.05238024438602   -2.08762907034907
H         4.79607589315517    1.68364642069580   -1.14820049926116
H         1.37443037218417    1.22365510210271   -1.11465885138898
H         3.53854186517597    2.15880160845257   -3.07009686476818
H         2.74683925417370    4.66623740639727   -2.58111480596388
H         2.63980297329321    4.83576100254293   -0.22468605727206
H         0.26702220584272    3.61828382157943   -1.80448959900630
H         0.55638799163416    5.27329383804788   -1.16491386429518
H         0.04228393559556    3.88904390050358   -0.14766852052447
H         1.76059366775863    2.45046384582792    0.71454342952567
H         5.99305976563387    2.92473513014886    1.47714874590705
H         0.39105818127922    2.51279647062662   -5.61964734061185
H         4.09155857499195   -1.77014014508726    1.33699997535078
H         4.84431987918616   -0.11154272876272    1.34811973927431
H         5.11398129754854   -1.23888575489361    0.00228623241709
