36
 energy: -50.518684093218 gnorm: 0.297916285810 xtb: 6.4.1 (79825abcba525fcdf90b791dcacef51065a7a4e7)
C         2.92282631458079   -0.43866469913518   -3.61654060755269
C         2.96782601561894   -0.89278026554060   -2.16492224593316
C         3.42221217934609    0.33094598441596   -1.28053073029103
O         4.80810916019604    0.59810380559072   -1.55441911404224
C         2.54401782861383    1.63118928479706   -1.47427896741912
C         2.80432533315104    2.55794608083404   -2.73881299218604
N         3.02786978234868    3.85681939899774   -2.09466854455813
C         2.25024153282375    3.90784898670210   -0.84772050477152
C         0.74591264127296    4.14797872799377   -0.98858220646503
C         2.63631596498154    2.54725717046990   -0.24301456248374
C         4.01740909118610    2.59394415598210    0.39007601792922
C         4.97434394290639    2.79140146537309    1.25340458594932
C         1.70261747198336    2.56447543060483   -3.78600089377885
C         0.56613511366538    2.55129595496969   -4.42496798317349
C         3.15684445832371   -0.10759181718002    0.19634283559078
C         4.27902924278561   -0.73581258305118    0.97368938731006
O         1.99897155357212   -0.18072241215636    0.64062175259383
H         2.58610350374693   -1.31684252677505   -4.19327488502610
H         3.91080897815817   -0.09465038988014   -3.93866332423950
H         2.20694532658955    0.37284274126152   -3.71879204466607
H         3.76975224617542   -1.62558993918463   -1.98651128207779
H         1.95538638356859   -1.19823279254184   -1.87248091813982
H         5.01395916343461    1.39680605392330   -1.03960142715799
H         1.47707151247591    1.35488245093362   -1.49857208171598
H         3.70418519038041    2.21448435045853   -3.24774849139438
H         2.76036325390409    4.64515842051602   -2.68111685083069
H         2.66549727291473    4.76868201553371   -0.31019327406152
H         0.22491667667586    3.37118715795969   -1.55782277209264
H         0.57236559793576    5.12215539150770   -1.45956274264431
H         0.17551688645677    4.22114343756283   -0.05539205461344
H         1.94300597936524    2.28198881231572    0.56216111891738
H         5.94616536325635    2.88991190087191    1.68013406059843
H        -0.09311372412440    2.58041941047513   -5.26181000539460
H         4.28832671046102   -0.24886698365349    1.94727684738157
H         5.21039191044771   -0.61549944573938    0.41112376531994
H         4.06281321171504   -1.80621394908984    1.03184362087113
