36
 energy: -50.514492374806 gnorm: 0.299805402625 xtb: 6.4.1 (79825abcba525fcdf90b791dcacef51065a7a4e7)
C         3.03570026181507   -0.51863261846747   -3.55735837059329
C         2.92426081626038   -0.83040081972765   -2.07215683066025
C         3.37525109677792    0.34501932814189   -1.12288536614529
O         4.80088389480448    0.42298419516297   -1.29197466302797
C         2.53884247880581    1.65960077038740   -1.39064007760806
C         2.84271697560437    2.53640433995443   -2.68081846876558
N         2.87059414075892    3.93264519753252   -2.23170774717867
C         2.15474900547645    4.04645486097115   -0.95233202579369
C         0.63209933134937    4.18995217117959   -0.91417146366433
C         2.56405224022928    2.72411736068441   -0.28164040708828
C         4.01920091362059    2.87362150965408    0.13138800021688
C         5.19524536221146    3.05392114753448    0.66473725713111
C         1.86089997714993    2.31137981426614   -3.81915266937827
C         0.72205872142268    2.56051697229331   -4.40311852171324
C         3.08583202263792   -0.18672602485756    0.31842460294125
C         4.18858561256923   -0.98476999459657    0.95504695469065
O         1.97472643768840   -0.06508073665358    0.86068680595499
H         2.74347599330947   -1.40451190140704   -4.14644566852251
H         4.08517443813187   -0.23205875905598   -3.67859371269459
H         2.50038363990599    0.32584494090333   -3.98371389323582
H         3.55729091648706   -1.71068016387369   -1.88161199897869
H         1.90591238011053   -1.03803712754001   -1.72043135236650
H         5.00781047131846    1.37203603575283   -1.33462147297110
H         1.52017064022061    1.26904785164202   -1.54902625495228
H         3.86491306363746    2.34197509388440   -3.00337313186166
H         2.53931404826735    4.65553223217479   -2.86782692567490
H         2.66104403300214    4.85652730727503   -0.41395080253926
H         0.17528796305071    3.27247177705387   -1.29943742903198
H         0.25985882051100    5.02509295247473   -1.51827269070089
H         0.36003311733003    4.29273383134902    0.14269378903456
H         1.93639762281433    2.40009893740960    0.55526799068268
H         6.24421741244360    3.10972581781920    0.84579721806082
H        -0.10172509300279    2.35321396516214   -5.04667698252904
H         5.04869998567440   -0.35519063767024    1.17619870558116
H         4.50457972874079   -1.82291069972930    0.32571427490494
H         3.79551327223256   -1.41872309314792    1.87866441512685
