36
 energy: -50.516029405802 gnorm: 0.302223190889 xtb: 6.4.1 (79825abcba525fcdf90b791dcacef51065a7a4e7)
C         2.90895191583427   -0.64476803839398   -3.58758181194693
C         2.86527798732624   -0.88716566875058   -2.08599007083418
C         3.37798114799396    0.38146029675736   -1.30250765434797
O         4.74815436243860    0.61611010920446   -1.66947280167491
C         2.50007343203292    1.68807444842391   -1.44891061290137
C         2.84112371257174    2.66031426262222   -2.65891842496109
N         2.88674420689997    3.97932775749956   -2.01853708415350
C         2.10478561766173    3.94109487413220   -0.77384108368300
C         0.57958830345415    3.98277052825298   -0.88585009121869
C         2.55484024676925    2.58592719747694   -0.20208569569399
C         3.87141390124315    2.66605794339622    0.55330455862127
C         5.14452136162381    2.55593597942297    0.81238071345130
C         1.78807634551723    2.66024622225920   -3.75504641166184
C         0.87735319629412    2.72552758502366   -4.68583450130370
C         3.28372995666935   -0.07400826443417    0.18999228109775
C         4.37331447462797   -0.84340040019950    0.88214038073653
O         2.23681260596612    0.17486900421665    0.81081888239650
H         2.91122770006971   -1.55864335490681   -4.20566570382054
H         3.80383935352873   -0.08526365880061   -3.87801244733099
H         2.07193615550287   -0.01936227807425   -3.88717740855418
H         3.47129994999817   -1.72486038790533   -1.70792776892124
H         1.84298681510766   -0.95188512578685   -1.69281155907784
H         4.92196105023463    1.34310045279080   -1.04769065550676
H         1.46491520737574    1.31705834601333   -1.52704230976357
H         3.84013008130079    2.45619325704438   -3.04238934351466
H         2.62726397405700    4.75379381283788   -2.62667531457596
H         2.50293177205725    4.71567782113160   -0.10757743218767
H         0.18804258824090    3.10287593746412   -1.40676680426835
H         0.24764536693748    4.86797866806347   -1.44008997523621
H         0.07637203776252    3.96151029897013    0.08773588115898
H         1.82513009832246    2.17772404320154    0.50519586318535
H         6.08202209807498    2.64928177175431    1.31099694891449
H         0.19942116989613    2.70170621388711   -5.50778490606133
H         4.35112266012014   -0.62413425764068    1.94821020981346
H         5.33477021708174   -0.63252269532691    0.40305250367659
H         4.15695986753276   -1.90554400140232    0.73746134216792
