36
 energy: -50.518062110105 gnorm: 0.301947790798 xtb: 6.4.1 (79825abcba525fcdf90b791dcacef51065a7a4e7)
C         3.37607162892701   -0.40386762288360   -3.75960172118603
C         2.91163929817980   -0.78103751687108   -2.36049941648345
C         3.27979919580856    0.29586772196765   -1.26923663033896
O         4.70930262477059    0.43176367725050   -1.34100600768171
C         2.49862635520315    1.66773357639052   -1.35379092883180
C         2.82937423790986    2.61257926519864   -2.58811542690955
N         2.69607225798732    3.98970837944651   -2.10055814787232
C         2.18274391324269    3.95755577509536   -0.72300620415652
C         0.66529109135383    3.91984316892139   -0.53215433064785
C         2.71743747128881    2.62516971958300   -0.17093460117361
C         4.16228537410108    2.90132352388058    0.21189070779486
C         5.37016829024638    2.89697098562033    0.70285898006287
C         1.87527284808274    2.35751488556418   -3.74355391916573
C         0.95252325367167    2.68272935917025   -4.60542025072218
C         2.85222580055688   -0.31370543541618    0.10535150251646
C         3.95577305431851   -0.49729766933792    1.10869841913216
O         1.66202837434812   -0.62892876227443    0.27107974008226
H         3.10603160159962   -1.22786422055018   -4.44173731158017
H         4.46684105238295   -0.33275326295240   -3.81776908890566
H         3.01716984267692    0.56480140634896   -4.09776601059094
H         3.40417308814777   -1.70346948742690   -2.01632519983802
H         1.82692974448948   -0.94613923919641   -2.35855324400425
H         4.89963507327400    1.06381005902897   -0.62712388255887
H         1.45386339796599    1.31592357031949   -1.35060266499355
H         3.83604375695105    2.46500524298559   -2.97743209955787
H         2.12735852884500    4.54519696828934   -2.73692038775003
H         2.63010093373359    4.82582584885058   -0.22462368021522
H         0.27576549862845    3.24039044173729   -1.29732788635302
H         0.21189914138349    4.91064898160166   -0.64920559509777
H         0.42959345928265    3.54580435682144    0.47088597315702
H         2.27708467189957    2.43467191008381    0.81352155197207
H         6.37145792670929    3.23499253343598    0.84214188818039
H         0.20133278748091    2.59330924842779   -5.35607245086309
H         3.71504190774339   -1.22408520815977    1.88258690322453
H         4.27292360825152    0.49033502539395    1.45853972014246
H         4.84275724276918   -0.90698196791798    0.61746711413780
