36
 energy: -50.516039472394 gnorm: 0.306333769595 xtb: 6.4.1 (79825abcba525fcdf90b791dcacef51065a7a4e7)
C         3.77140218253060   -0.12005886077173   -3.87145972442947
C         3.21899814360146   -0.61931656343384   -2.54442042694495
C         3.43219871478473    0.38859874942517   -1.35078174766501
O         4.84641502119042    0.64540444572209   -1.38457016333365
C         2.45419128830651    1.63055871917195   -1.37159628307984
C         2.82677801310352    2.73182400461086   -2.45514526187706
N         2.85130958621328    4.00696832456466   -1.73032028155548
C         1.98853730027912    3.85149535737475   -0.54979444104202
C         0.47728511605297    3.88892033556805   -0.78479642710952
C         2.40571393383836    2.45027046636264   -0.07181401268233
C         3.78772442596341    2.46249867990921    0.56087789236856
C         5.02235706941463    2.72827113237938    0.88506479900888
C         1.87671291526084    2.66129087379549   -3.63954669257230
C         0.78129386947248    2.65990517798693   -4.34672418200984
C         2.97709826975499   -0.28230136563278   -0.01411889606937
C         4.02374641759403   -1.04990462056005    0.74320572202581
O         1.79677964681272   -0.20608693080955    0.36593479314514
H         4.08446139283058   -0.95179345749927   -4.52522762023747
H         4.69311748563329    0.41106004447227   -3.61344375635265
H         3.01893736432089    0.53812459767599   -4.29816395611652
H         3.70841632673181   -1.56075750657896   -2.25101804984752
H         2.14324286763143   -0.83330096768210   -2.57302886824588
H         4.95320942325787    1.58324737323159   -1.15136992117420
H         1.44329148038849    1.28442492866957   -1.64285823101359
H         3.79061895629871    2.48018399697821   -2.89607271420615
H         2.68282134466347    4.80946274151970   -2.33412007511117
H         2.22586424129156    4.62225831465902    0.19317712048043
H         0.11828192025577    3.18405249043779   -1.54186629580057
H         0.14619112341689    4.89913683454209   -1.05088063666100
H         0.05772438685672    3.65514845578614    0.20052979235652
H         1.71674282883491    2.08764501928877    0.69836487048510
H         6.00534175166991    2.91536038004064    1.25245824192924
H         0.09983934242746    2.53086506333727   -5.15587815640148
H         4.77542926998618   -1.45571230028111    0.06839610864875
H         3.47344262071556   -1.88586433334310    1.18674697155777
H         4.35517721600750   -0.41096341651495    1.56649068779280
