36
 energy: -50.503615142486 gnorm: 0.305447278495 xtb: 6.4.1 (79825abcba525fcdf90b791dcacef51065a7a4e7)
C         1.90890517179895   -0.93469196891664   -3.44895061379907
C         2.35035064670670   -0.88626888006496   -1.99353903406507
C         3.21800060464095    0.35747790014883   -1.56180004339957
O         4.26380278468492    0.55699255045939   -2.52802481402384
C         2.41182617979650    1.71691031167954   -1.52408176827832
C         3.27285641641748    2.95244975003707   -2.03177632543379
N         2.67226906443287    4.13358107577071   -1.40234027785113
C         1.64442064424349    3.76457309068312   -0.41768304779294
C         0.23317823375976    4.01206822036731   -0.95401386878678
C         1.96281398308967    2.28090092228357   -0.16613699387107
C         3.09237190077200    2.19990347472515    0.84773673378717
C         3.74358834859137    2.22414539344625    1.97706370394422
C         3.27259594785659    2.85979636591276   -3.54895156964468
C         2.92472363205740    3.29069029941787   -4.72935833618973
C         3.84386921342555   -0.04171211406713   -0.18599963778244
C         5.33446256152954    0.09518554099093   -0.05326616843078
O         3.20258180912453   -0.64969042639835    0.68722102595966
H         1.29199284554404   -1.82242488025389   -3.66929223277466
H         2.80425417673711   -1.02621245722252   -4.07200180711492
H         1.44944445895981    0.02011170278178   -3.69129555274898
H         2.86134130023621   -1.81589670548176   -1.69924867140470
H         1.46704401792854   -0.84916262699449   -1.34373159434021
H         5.01438600169756   -0.03384807247879   -2.34672686510733
H         1.60524092052655    1.54486787467459   -2.25560873356735
H         4.33635564200895    2.83593472790151   -1.82653806630924
H         2.53206817137649    4.94313610754441   -2.00394158392828
H         1.74335543058930    4.37229470516477    0.48967173631791
H         0.14017071343461    3.52123456893659   -1.92833860435802
H         0.08509640899136    5.08614779345959   -1.11334452617890
H        -0.62079187378164    3.62766307405171   -0.38435081883535
H         1.11249089171619    1.71474463003131    0.22854213786144
H         4.51912400396372    2.30874397356870    2.70344291636186
H         2.90080883570075    3.34826697486253   -5.79325439301838
H         5.67278509657216    0.96544861711522   -0.61295808216448
H         5.74907349170024   -0.83088734580077   -0.46421450279582
H         5.65198188399140    0.14754539075529    0.99187989388026
