36
 energy: -50.518226025739 gnorm: 0.298309545277 xtb: 6.4.1 (79825abcba525fcdf90b791dcacef51065a7a4e7)
C         3.14402591157334   -0.50871061852962   -3.65331788013325
C         3.06680047371854   -0.81931531072787   -2.16570142114077
C         3.41495343719151    0.38995856285497   -1.21566601328044
O         4.76561599833345    0.80997529785245   -1.47333861585295
C         2.36130544559348    1.56000599570117   -1.35783228533558
C         2.73878782168558    2.54063069379611   -2.55012702013249
N         2.96979887763319    3.85124898350256   -1.93297251533876
C         2.09028456341357    3.90862206679720   -0.75596273297759
C         0.61297356115991    4.23878757741693   -0.97744109501589
C         2.28958034135411    2.50886045290534   -0.15025533877349
C         3.61861841539270    2.45287742788249    0.58522089172244
C         4.85158846450127    2.68545463405882    0.93982294744798
C         1.67031240116918    2.59983743564535   -3.62959920430733
C         1.04726861700188    2.88559459413911   -4.73874486169805
C         3.26119893287496   -0.21382735716574    0.21810281577207
C         4.50378596366643   -0.89252035719092    0.72167103079799
O         2.13285925562102   -0.18020992964700    0.73687148246210
H         2.78419302574616   -1.37688050160197   -4.23124721771982
H         4.14429697778361   -0.26271766424411   -4.02367431380016
H         2.43914834065623    0.27833254383643   -3.90865283238626
H         3.91483190443009   -1.45535387097893   -1.86867648343004
H         2.07532237612581   -1.22418185841224   -1.92714023265823
H         4.87044498100429    1.75812882517190   -1.28531594772088
H         1.38709684859427    1.07111417562982   -1.52279427880998
H         3.66284121478861    2.26518380805178   -3.05706233187497
H         2.65725992684210    4.53729831557009   -2.61752747832261
H         2.51452393387115    4.67004553974551   -0.09063453661719
H         0.24609618199862    3.75817771264796   -1.89028933394960
H         0.57585376165955    5.32264969902211   -1.13500516858195
H         0.04268996823331    3.91198435776389   -0.10021562032415
H         1.41236785703357    2.28552593600494    0.46616486020404
H         5.72159501834048    2.66981548403737    1.55552030655472
H         0.31484085614455    2.85210425716076   -5.51217213759660
H         4.78915815495560   -0.52640852045195    1.70635363485386
H         5.27269704625591   -0.76222814012883   -0.04656814414338
H         4.34955737117418   -1.94898448984774    0.95828768652355
