36
 energy: -50.518347125416 gnorm: 0.304433600232 xtb: 6.4.1 (79825abcba525fcdf90b791dcacef51065a7a4e7)
C         3.11285148678999   -0.53781317771487   -3.61016090580578
C         2.96537115943081   -0.81091980110939   -2.12049513703007
C         3.37624743663966    0.42276874636224   -1.22869116371287
O         4.68976050002268    0.81729154661733   -1.66012339756646
C         2.33530085195134    1.59824795811663   -1.41328573853860
C         2.78167019361090    2.51125454433688   -2.63511136298331
N         3.01778454352350    3.82144066412853   -2.01897141539799
C         2.19912157035546    3.96438727119519   -0.80589832490240
C         0.80368938735781    4.50983150286175   -1.11536452552398
C         2.23875130692571    2.54776102546879   -0.20795821090068
C         3.46529763922504    2.53329468809092    0.68969226576744
C         4.67521172620765    2.32075050160979    1.12670802143920
C         1.71492257986612    2.59142220739977   -3.71493913692165
C         0.61161217582265    2.60281850546874   -4.40964848093497
C         3.35949265562965   -0.19801604958870    0.20596434851531
C         4.64178525955760   -0.82318189832785    0.67832119735703
O         2.30285054923865   -0.19564694144118    0.85934274361909
H         2.86545768135137   -1.35043805468227   -4.31417658977261
H         4.16021813813240   -0.30023598130939   -3.82181818557676
H         2.55802477069690    0.35266475811569   -3.89424122915115
H         3.65291451091625   -1.60882503324123   -1.80024906112019
H         1.96648948246184   -1.21601440305167   -1.91557823558408
H         4.91365971052720    1.57532547689691   -1.09391631547720
H         1.39511421773604    1.05363296306628   -1.59970905080862
H         3.70914552318538    2.13447975323651   -3.06471505795446
H         2.82126832523206    4.56356582703480   -2.68799412832275
H         2.75505501383217    4.63679002893808   -0.14165522975158
H         0.03758894678886    3.74288014060970   -1.26948292037079
H         0.80116055225910    5.20998486274168   -1.95841866886262
H         0.40329139613412    5.12873262479213   -0.30407474964178
H         1.35523480594540    2.29040169346942    0.38577461766251
H         5.61099753940677    2.27885639959644    1.63542110936581
H        -0.04935627049334    2.57443823865357   -5.24515853179664
H         4.41529932930810   -1.77589427128313    1.15384012660175
H         4.98010312425573   -0.20321440308112    1.51472604783129
H         5.45011346577000   -0.81543658322798   -0.05818126652686
