36
 energy: -50.515735165310 gnorm: 0.303876285590 xtb: 6.4.1 (79825abcba525fcdf90b791dcacef51065a7a4e7)
C         3.28102336738664   -0.78706403502978   -3.44678471365277
C         2.78672740930673   -0.92965968647855   -2.01473032544723
C         3.22313422182227    0.32995053883357   -1.17267792018597
O         4.59663452539299    0.54009671346729   -1.54204780408304
C         2.37421472952804    1.63833800448133   -1.43123989390421
C         2.73068440047163    2.44910788987571   -2.75081030570989
N         3.11792240695116    3.76990547159093   -2.24335924030201
C         2.35185503301888    4.00766292947766   -1.01096266939554
C         0.90121712606498    4.42615747202189   -1.25798841376899
C         2.49446458253962    2.65806979939901   -0.28695041185074
C         3.84259925172506    2.65403025172248    0.41513092541157
C         5.11532876850956    2.73819203974010    0.68554968478524
C         1.47773040871697    2.42106996773826   -3.61088330939493
C         0.29297588408799    2.46863173550499   -4.15322952930925
C         3.19131276388646   -0.03325877585913    0.34750540535853
C         4.39467050889527   -0.77053711481742    0.86381777105646
O         2.22213067950724    0.27111075266785    1.06266047341400
H         2.96159160424729   -1.65078144987691   -4.05436725863617
H         4.35694471813280   -0.59193055842465   -3.49713155626780
H         2.76556062875773    0.08107975955798   -3.84941331259530
H         3.27698394291879   -1.76162846954599   -1.48614481133279
H         1.69504671439152   -1.01621276007466   -1.94691431105428
H         4.94592108742536    1.37596209381946   -1.18896889282756
H         1.31282072051005    1.34191055682906   -1.40151443342511
H         3.53145190721929    2.08738063158020   -3.39474653742926
H         3.03157572310373    4.54068576926734   -2.90320903993410
H         2.85308273556636    4.86448243642861   -0.54508984983645
H         0.22335387448122    3.74815750738716   -1.78684966314155
H         0.89338870333253    5.34599275920751   -1.85364198500256
H         0.42584212100024    4.54422910362617   -0.27736312796131
H         1.73022571526919    2.41113263417995    0.45757287163947
H         6.00374599960732    2.58181155553063    1.25343981704369
H        -0.50962557836129    2.67401923930702   -4.82360901792286
H         5.29908450828446   -0.81419116934824    0.25949614091057
H         4.15466102328027   -1.82834475511433    1.01156819261518
H         4.66451819068212   -0.35418174943422    1.83835397173285
