36
 energy: -50.513191974598 gnorm: 0.302334302083 xtb: 6.4.1 (79825abcba525fcdf90b791dcacef51065a7a4e7)
C         3.50332863514529   -0.33175126913238   -3.70738880262878
C         2.99706487084464   -0.73521796675128   -2.33030731937014
C         3.36945991477142    0.36450706308194   -1.26351405042759
O         4.72693340575725    0.78064866346383   -1.48976720235139
C         2.42569647354050    1.63241325832456   -1.29699252748206
C         2.66974183690144    2.52243410408009   -2.59081988889614
N         2.91907787439485    3.85053444465787   -2.01990209571137
C         2.26778726123972    3.98111437735245   -0.70804899931551
C         0.77394356253300    4.24471102545393   -0.90668822434185
C         2.56794096322107    2.59690948837055   -0.10820118107544
C         3.88371036253579    2.62266001951876    0.65238369960965
C         5.11466842423763    2.91999002027536    0.96284630125233
C         1.58125322534328    2.50834145262524   -3.65166827876847
C         0.46533916317116    2.36717946787377   -4.31110281876557
C         3.03748286057450   -0.34526949744823    0.08922370888919
C         4.21509024682275   -0.98025634722564    0.77351913517303
O         1.84156057968976   -0.47335453301244    0.40029544938277
H         3.50053597603178   -1.23019604434602   -4.34769354382297
H         4.48947429324531    0.13147673526414   -3.60177067096613
H         2.88375221180400    0.35758926288453   -4.27520915775821
H         3.46193681784320   -1.66446309812309   -1.96654403318547
H         1.92594581982872   -0.97226474292901   -2.34954241880275
H         4.91790358532198    1.64216180397638   -1.08152431920017
H         1.40591879266572    1.21761045289281   -1.35445712826822
H         3.56574691247227    2.22156789723693   -3.13246876689969
H         2.72840662602971    4.59868053005316   -2.68389131459814
H         2.67412069338985    4.82147386823247   -0.13264008395882
H         0.33437575259780    3.49348783546393   -1.57100789237922
H         0.64956931180696    5.20139772737613   -1.42653725618792
H         0.27656460934219    4.40276416042511    0.05725245733163
H         1.84309000134807    2.36583556208563    0.67954867953782
H         6.04556510311469    3.18929810297078    1.40685502269970
H        -0.18522697693339    2.56009688724941   -5.13287429081865
H         3.97565867016826   -1.90450686802601    1.29649953088197
H         4.42803533969534   -0.26654859411891    1.57580797532197
H         5.14731680462814   -1.14412957612434    0.22580609445414
