36
 energy: -50.510626901490 gnorm: 0.302092808660 xtb: 6.4.1 (79825abcba525fcdf90b791dcacef51065a7a4e7)
C         3.56332822469753   -0.18910636180161   -3.94017794064970
C         3.20164225041635   -0.62852248905421   -2.52895914208147
C         3.47088300343336    0.41465369608961   -1.37769291122334
O         4.83719384630625    0.84350377126516   -1.50568074504886
C         2.43246013453049    1.60037219570170   -1.50076172617540
C         2.87842714240579    2.69076348508793   -2.56745979838986
N         2.90905222228586    3.96246960906458   -1.83684925534933
C         2.00273740469651    3.84901241806530   -0.68449946256502
C         0.55002077761738    4.25107897865647   -0.94616069447497
C         2.21333347277313    2.40199958753411   -0.20728255387287
C         3.37066980426044    2.38541021000915    0.77795800179517
C         4.39804522653574    2.36329564689014    1.58049184012074
C         1.87513779110971    2.78295898075292   -3.70557925766964
C         0.64238673432932    2.97798549182868   -4.08285151598399
C         3.27536902006423   -0.35181769531953   -0.02929132845836
C         4.49981529346378   -0.80802029363596    0.71289340525351
O         2.15636643572546   -0.68283092806973    0.39693038110281
H         3.67257639923024   -1.06702412655470   -4.59936395816345
H         4.48988330598172    0.38967107647191   -3.87139575677180
H         2.77456003853798    0.45706588008044   -4.31672999730196
H         3.73927854077807   -1.55708019716325   -2.28267888324424
H         2.12490009663272   -0.83930578227078   -2.53630229503876
H         5.31809245941994    0.01879853600272   -1.32146739736843
H         1.44057281245808    1.14542471912103   -1.65726222191635
H         3.89611619258903    2.43256795519525   -2.85793038048521
H         2.67984709247180    4.71571465995835   -2.48264077094848
H         2.46876902486476    4.53816222474278    0.02984879118716
H         0.00314217940499    3.56107431161668   -1.59707859645977
H         0.47438144498560    5.25337708374607   -1.38278251227843
H         0.01648628889534    4.33577003948092    0.00762996692097
H         1.32872194476387    2.06486374411128    0.34331328295453
H         5.14780817480238    2.43862768058474    2.33442805037995
H        -0.24726272651026    2.91159274467134   -4.66584178274960
H         5.21365474442287    0.00796130317773    0.81129192107959
H         5.11776628749065   -1.58308274257609    0.24834361512832
H         4.24039253361856   -1.12623973192882    1.72646461027385
