36
 energy: -50.516527693482 gnorm: 0.309123622182 xtb: 6.4.1 (79825abcba525fcdf90b791dcacef51065a7a4e7)
C         3.84672042741961   -0.58587776598484   -3.81672358346386
C         3.25433701132763   -0.79364354683151   -2.43059334587803
C         3.38779223277649    0.34893482640305   -1.35224951214370
O         4.73782455111843    0.83510719270483   -1.44251449782053
C         2.40939553792664    1.58747060316779   -1.44261193360540
C         2.69995393013345    2.62222090003680   -2.61331776742391
N         2.87847695844700    3.91876680874120   -1.95069845307120
C         2.05871920155481    3.92117291175141   -0.72996893181168
C         0.57214826663443    4.24810368698328   -0.88402364289054
C         2.29066206246642    2.49362496309391   -0.20628754971124
C         3.51032045489818    2.51508720726766    0.70056102586815
C         4.60420372813727    2.62379159549932    1.40174048536748
C         1.50231554151776    2.66713577238958   -3.54822437713948
C         0.60904336543307    3.17473895393239   -4.35099998698632
C         3.16905887878608   -0.44495535808426   -0.02342106631118
C         4.48777986748721   -0.78556866488334    0.61154760092116
O         2.07280336481491   -0.72125299495803    0.49163713664387
H         3.67938352754085   -1.55229012923290   -4.32194282173163
H         4.92261139654699   -0.38824484404361   -3.77649327596397
H         3.30725804633354    0.22567761157364   -4.29822485703007
H         3.75048023304654   -1.64727827576431   -1.94368902190075
H         2.18455527413560   -1.02490020305917   -2.50769441895868
H         4.83390893027289    1.48252609047390   -0.72351983893594
H         1.37311143965831    1.22436573661079   -1.54049042050406
H         3.61453962163668    2.39674148855972   -3.16051163822243
H         2.61505245835288    4.69364314358246   -2.55661426989830
H         2.47674934979801    4.65583896881666   -0.03145412273957
H         0.02506203567489    3.61196810464501   -1.58751844539165
H         0.51146482068882    5.29393033590551   -1.20577751793719
H         0.11959082393752    4.28348097629069    0.11371803875157
H         1.43383920818972    2.12298773579569    0.36628258482764
H         5.39818827234291    2.61048179797116    2.11283162189807
H        -0.09002182396949    3.61511473003671   -5.02415586680624
H         5.13894437267563   -1.21447200636661   -0.14812450694811
H         4.40761663183921   -1.57273562490772    1.36807504791837
H         4.95146077612879    0.06528446077924    1.11843944458622
