36
 energy: -50.522592307094 gnorm: 0.301653009611 xtb: 6.4.1 (79825abcba525fcdf90b791dcacef51065a7a4e7)
C         3.11561326027691   -0.91204681824402   -3.53751529148979
C         2.78311974481033   -0.88629234495632   -2.05285151684591
C         3.24971405098646    0.35983492465094   -1.20693330827772
O         4.62221419456899    0.65148410302934   -1.52043399696575
C         2.34880054509712    1.65306846854817   -1.33061907304501
C         2.75436221509528    2.48229967874469   -2.62428820926441
N         2.95734611878064    3.86710647567281   -2.18488660075716
C         2.27991984141665    4.04447490609614   -0.89189657744911
C         0.78970251766335    4.38226889899083   -0.96711135889446
C         2.57148361894703    2.69212076807043   -0.21954126929301
C         3.99615954610273    2.79318321432036    0.30054181891409
C         5.20469326278370    3.05436021628622    0.71440495168782
C         1.60770624232264    2.27657562946173   -3.60064015183468
C         0.72542008680150    2.66018340350762   -4.48067484803533
C         3.12556555278914   -0.19569586403812    0.24904183563054
C         4.36275886158954   -0.74455515309833    0.90198429437992
O         2.00517569486948   -0.21259450934251    0.78555137406228
H         2.89309116924996   -1.90744310534151   -3.95807577149894
H         4.18842833655583   -0.73631041936031   -3.66559009864840
H         2.60064467364068   -0.18613028861801   -4.16148468742493
H         3.33823060366689   -1.72313470557608   -1.60177174636702
H         1.71061346444673   -1.09444980199149   -1.95157012306692
H         4.82097191610944    1.43988230043376   -0.98727322941622
H         1.28104332117076    1.37989638798696   -1.35473496939644
H         3.67784458981258    2.09098071177796   -3.04946917405932
H         2.69443646827641    4.60993955375198   -2.82989613903062
H         2.78836120090684    4.82582155557521   -0.31449624037148
H         0.33632989370201    3.61449429617841   -1.60260501226037
H         0.55712035401136    5.38129308478606   -1.35288023161683
H         0.37337115181315    4.32845561709296    0.04546978699335
H         1.95582148734248    2.50884607492002    0.66743360309893
H         6.25987267038815    3.14621519173515    0.83439778673860
H         0.11435465999038    2.46851857440755   -5.33251136036900
H         4.07657706166962   -1.54270525019784    1.58472245439543
H         4.91849106714497    0.09632593645509    1.32915223816383
H         4.98585967778333   -1.14038392312532    0.09516626996766
