36
 energy: -50.518499664517 gnorm: 0.303991455527 xtb: 6.4.1 (79825abcba525fcdf90b791dcacef51065a7a4e7)
C         3.17517595112845   -0.66043886706663   -3.55032188658195
C         2.95064574368037   -0.86363338363583   -2.05910092525664
C         3.31865944626555    0.41576069638079   -1.21421171237337
O         4.64943920098416    0.79953256865521   -1.60001346806936
C         2.29586737736877    1.61036747281035   -1.37609865788881
C         2.70004476345242    2.50689866495607   -2.62452044260552
N         3.03860682919125    3.83812279800654   -2.10956013445033
C         2.26073010286094    4.04023599544190   -0.87820024783897
C         0.81524641201557    4.49743681194710   -1.08327103077438
C         2.39001208315688    2.64530578397581   -0.24307137694422
C         3.69435457459952    2.45864418115883    0.51472125218462
C         4.87495347003989    2.62518038404203    1.04245398724735
C         1.58888562956142    2.52416693177998   -3.66155107468663
C         0.60222683252598    2.69339969058962   -4.49696084602573
C         3.28334882404638   -0.13578273048129    0.24813023219713
C         4.50144635407708   -0.88466052409085    0.71035110801364
O         2.21993236094436   -0.29253884899689    0.87100617841759
H         3.02610610836614   -1.59921981903583   -4.11038391803575
H         4.17463311770769   -0.24602104073252   -3.71633955934312
H         2.34961989518558   -0.04804635203567   -3.90375911879018
H         3.66844025359656   -1.61708145430567   -1.69991682591039
H         1.94133556252830   -1.14899629098853   -1.73704789566606
H         4.77577404864154    1.58522684745299   -1.04138947476795
H         1.25580084347025    1.26279428491838   -1.48907892757763
H         3.58269242070209    2.05146871520334   -3.07200870225770
H         2.92560186904545    4.53563883263653   -2.84281386226003
H         2.75490583186875    4.75656573751017   -0.21106577952422
H         0.22020225849470    3.84148094792809   -1.72710417358111
H         0.88218008724538    5.47650104610454   -1.57103585349439
H         0.36668683094742    4.67831127511080   -0.09959070539829
H         1.61052966761459    2.47968660051577    0.50814854040187
H         5.75903597743632    2.68683915122065    1.63476769174331
H         0.08078621490352    2.64025224836213   -5.42488153372560
H         4.47665171094323   -1.18732021542268    1.75574927821592
H         5.40955875591834   -0.34406258989279    0.42490849669129
H         4.44999211756661   -1.85362296958221    0.20601529426424
