36
 energy: -50.519107517747 gnorm: 0.303932300155 xtb: 6.4.1 (79825abcba525fcdf90b791dcacef51065a7a4e7)
C         3.26820448570791   -0.32452926993761   -3.79971949186102
C         3.15708145256365   -0.75917566993574   -2.34569887845971
C         3.35008803875778    0.39089687837742   -1.28447192662398
O         4.73219686388540    0.75549143984335   -1.43921230989171
C         2.38697505724947    1.63213625074978   -1.46092170536733
C         2.96620138223604    2.73729292840976   -2.44520320673733
N         2.91956717877818    3.96579306183548   -1.64484155346196
C         1.90126504386418    3.83672337597202   -0.59194511699347
C         0.45577700829673    3.97810969388418   -1.07265706932578
C         2.14653377907035    2.38617645938979   -0.14284632224279
C         3.43867607503711    2.30995290013670    0.65399736378781
C         4.68736130317638    2.44993474360284    1.00219301421560
C         2.09521127819811    2.84668672930582   -3.68609588322607
C         1.08498512823786    3.20516141351819   -4.42837875136100
C         3.19738607411659   -0.35129584502586    0.08290621848162
C         4.50505519145734   -0.89180083419871    0.58895315254446
O         2.14918188885176   -0.39180885020841    0.74850982401237
H         3.24715736474447   -1.20846445058661   -4.45958052613550
H         4.25633292814933    0.13330322703212   -3.91021933115105
H         2.50322134161012    0.33829787082240   -4.19588389459207
H         3.95461474828959   -1.48708150546653   -2.13117638555957
H         2.21493172391219   -1.22198500677021   -2.02629539418334
H         4.87834876591792    1.51602821007435   -0.85136862673776
H         1.41445772173677    1.31690907523154   -1.87341645678974
H         3.95138583239992    2.50122529516080   -2.84571880797871
H         2.86842161113639    4.84277700579192   -2.15985909023855
H         2.08029440294835    4.53556587543712    0.23387205710204
H         0.17638446418732    3.20940246788174   -1.80060333697060
H         0.24557128088886    4.93342473313133   -1.56677056033127
H        -0.15864072670843    3.90889467479933   -0.16753366088012
H         1.33446114589539    1.90496640465557    0.41242733808752
H         5.63780565289388    2.51619704879717    1.48021400970160
H         0.39973280848359    3.34543066722198   -5.23244068092970
H         4.31061798454651   -1.58596456678172    1.40467729683588
H         5.15755613877530   -0.05115828987442    0.84576898373597
H         5.03857065117946   -1.29130497055780   -0.27802324139332
