36
 energy: -50.502511075068 gnorm: 0.297852511507 xtb: 6.4.1 (79825abcba525fcdf90b791dcacef51065a7a4e7)
C         2.41631217232989   -0.44353739231594   -3.79971263648136
C         2.62212565064194   -0.71896833835816   -2.31741025071685
C         3.33679577751927    0.40863865789411   -1.47844057209637
O         4.61275783326545    0.74206342980406   -2.05102011817871
C         2.38863030524210    1.67230961435481   -1.41915901277201
C         3.01733780958427    2.90397652508447   -2.20236270500710
N         2.37183510931964    4.09859962032610   -1.64723385477815
C         1.73046774841916    3.73647959686651   -0.37455709742771
C         0.20555642140501    3.76149178456642   -0.49509579719976
C         2.17425355647318    2.30368627148466   -0.03383684379638
C         3.53382882550765    2.29939487101492    0.64582358384733
C         4.40608716345414    2.61856587344624    1.56088927049786
C         2.77409145176752    2.60108095325679   -3.67188334571537
C         2.94488571660381    2.90476465365297   -4.92832689233379
C         3.49620291779483   -0.11371398747211   -0.01364433563364
C         4.90302034714617   -0.31082022997852    0.47650003303125
O         2.42087875840688   -0.38817287332689    0.54470300998428
H         1.87490264398730   -1.28233087207366   -4.26928924142328
H         3.30848749665396   -0.35101948875420   -4.42715366982304
H         1.82062217567868    0.45269979241961   -3.95267537689603
H         3.16988384021536   -1.65829613256627   -2.14550790418797
H         1.67754343522878   -0.94587821236484   -1.80737738430397
H         4.80173613586975    0.11097568792610   -2.76610907378202
H         1.38990094033530    1.49622891493146   -1.85141508697217
H         4.08810925802342    3.05013562535484   -2.06519452388959
H         1.63714643273549    4.46881544611822   -2.24734431857170
H         1.95883781213335    4.42870524129532    0.44463587776166
H        -0.10551143728735    3.09612996481369   -1.30713471293199
H        -0.08516650633185    4.79828939591035   -0.69879241119237
H        -0.10632645904876    3.43313580427526    0.50313247249619
H         1.43263675493532    1.75982695680148    0.56078529563415
H         5.40041713877215    2.61451369263479    1.94498655193873
H         2.96454407848172    2.77599595075811   -5.98605747056718
H         5.48490732212034    0.40440453874349   -0.10223658731340
H         5.15207993158977   -1.32051707650639    0.13463259418221
H         5.02554980677418   -0.13294287374855    1.54852453755788
