36
 energy: -50.523143365247 gnorm: 0.306057578589 xtb: 6.4.1 (79825abcba525fcdf90b791dcacef51065a7a4e7)
C         3.01474440090997   -0.23665022692770   -3.73319940432074
C         3.11700941168384   -0.73394903866993   -2.29873869325642
C         3.42263610583129    0.38692170249743   -1.23273580388819
O         4.77807834037730    0.81798721440119   -1.44263446738382
C         2.42467701756807    1.60166095487649   -1.39971636673537
C         2.87287125086333    2.58857437989548   -2.56195915110392
N         2.97261518225622    3.92234484419446   -1.95940326829667
C         2.08247538745071    3.90720844483355   -0.78909939424888
C         0.61100816631769    4.20067618962862   -1.08771389810347
C         2.29430973299960    2.51517091711819   -0.16999475867029
C         3.55934661639169    2.64703899083998    0.66228766802029
C         4.67299096557831    2.44078493126992    1.30827947583548
C         1.82506442304567    2.57420353402239   -3.66300397479227
C         0.79525429954358    2.82352853567876   -4.42285459610526
C         3.29580518470971   -0.36030204546415    0.13454671941833
C         4.56939416735582   -1.02476166522568    0.57578607154392
O         2.22636725449083   -0.34102593844298    0.76647426161296
H         2.67546941967789   -1.09714324849909   -4.33456885748152
H         3.99362795372263    0.10453136116117   -4.08476837790381
H         2.31199978619589    0.57455304739861   -3.90520091669765
H         3.97344020814803   -1.41432594579252   -2.17408027995595
H         2.16703252965224   -1.14713880525751   -1.93724827295337
H         4.91922985096666    1.60930534770279   -0.89561653770984
H         1.46259895324419    1.11679956198917   -1.63343688175457
H         3.83172133635052    2.37369687163386   -3.03223910534109
H         2.76916426066736    4.70825064474290   -2.57415489701482
H         2.51182361981588    4.68872942873353   -0.15090553602191
H         0.19396059532939    3.32021506853193   -1.58745012755239
H         0.55808508541684    5.03575403180690   -1.79539006627900
H         0.13453249544126    4.48094794503260   -0.14115860018161
H         1.45521105546162    2.22498601738463    0.47114487646628
H         5.51940704210983    2.55805524567998    1.94551311023810
H        -0.04830014312655    2.68348358378366   -5.05890891512955
H         4.78614132780358   -1.87008727335132   -0.07499828469724
H         4.45283514155147   -1.41372234686437    1.59240562764606
H         5.41510520044500   -0.33257885896371    0.53646468079221
