36
 energy: -50.498639717242 gnorm: 0.300337236563 xtb: 6.4.1 (79825abcba525fcdf90b791dcacef51065a7a4e7)
C         1.22755958859370   -0.72806020852823   -2.74195416230550
C         2.29033091971667   -0.99982660912375   -1.68739174147112
C         3.28886222171617    0.21616861340243   -1.58535294846989
O         4.11187312282903    0.15681161935282   -2.76273495995545
C         2.57583515953989    1.62689250644683   -1.55625246292427
C         3.44217164991091    2.92721326911758   -1.84661691097304
N         2.79994602515219    4.01001950349891   -1.09359432034552
C         1.48692230196878    3.51940192473765   -0.64923834011724
C         0.41076913172221    3.67297151991362   -1.72572358181862
C         1.89798555989925    2.09018995299732   -0.25641140873995
C         2.81669192679936    2.20819168228210    0.94876734284122
C         3.15841822651371    2.62147781094222    2.13724016985402
C         3.46231074213884    3.12454082542600   -3.35362111258127
C         3.23788077919557    3.64058824476220   -4.52978908072980
C         4.17685819426297   -0.03384971598104   -0.32327335138174
C         5.66735187404996    0.12221016451020   -0.43418574858338
O         3.69202379222410   -0.49647316394217    0.72282254859855
H         0.66711741603132   -1.66541554691634   -2.89838470196605
H         1.66368631701591   -0.48573354237100   -3.71626925147627
H         0.52484450569912    0.01651068246881   -2.37686380386370
H         2.95107451482944   -1.80100919551368   -2.05270055909985
H         1.69986415467637   -1.28714353882216   -0.80838369063250
H         4.55845568996811    1.01314993629355   -2.87491985898932
H         1.82622520812754    1.64287237894023   -2.36442301546113
H         4.41881970321571    2.71136102038877   -1.41499731864656
H         2.79650842057868    4.87649561170524   -1.62854021991020
H         1.14494597231721    4.12250218381371    0.20030779390456
H         0.82909833727704    3.67863835127448   -2.73757600539147
H         0.16025220678556    4.72665832078263   -1.55855056897289
H        -0.48900582668491    3.05783122855072   -1.60929462865873
H         1.03517017432421    1.46966191641475    0.00787724622323
H         3.74483120084149    2.58482043812392    3.02663058057288
H         3.14853684805353    3.83604706928075   -5.57361632017235
H         5.81266012884439    1.18918704863113   -0.27443331575259
H         6.03944411770359   -0.24800142015573   -1.39485347696252
H         6.20885521207868   -0.31059258219546    0.41159571239198
