36
 energy: -50.519514688573 gnorm: 0.314489745502 xtb: 6.4.1 (79825abcba525fcdf90b791dcacef51065a7a4e7)
C         3.00027847129293   -0.41174732156658   -3.71304204757643
C         3.04592571215631   -0.81699171745874   -2.24704918274116
C         3.36720500698076    0.34707048236292   -1.23321494033375
O         4.72213401380548    0.77334305651964   -1.45583044340617
C         2.36801041839027    1.56028764025535   -1.40383328663984
C         2.75905070431671    2.48275178591425   -2.63745878370011
N         2.96143844294926    3.80713602261344   -2.03995423471644
C         2.22779710118335    3.93408145225256   -0.77194620650514
C         0.78234624385379    4.38137033546790   -0.99803069081213
C         2.33606424204666    2.51170681665424   -0.19656681949083
C         3.61682631822675    2.49476535406099    0.62182370461835
C         4.74848982666069    2.67984065564696    1.24241594283864
C         1.66897293724497    2.46259347539974   -3.69657608490351
C         0.85585664040599    2.72496533346354   -4.68148607475296
C         3.24843297707608   -0.35778531235104    0.15709525676097
C         4.54618840603780   -0.83006864435604    0.74955366533609
O         2.17319031065570   -0.29762735988682    0.77647859271233
H         3.12462785142029   -1.38801003070347   -4.21168954647018
H         3.87926368046516    0.18556930985218   -3.97537098684449
H         2.11104647356734    0.11300681248296   -4.05272545670799
H         3.84713322935600   -1.55891535995835   -2.10725651774117
H         2.11912054978074   -1.28124831527779   -1.88738936681829
H         4.87719719218347    1.41080223314037   -0.73823866153466
H         1.31830694670628    1.23214972430037   -1.47971599848837
H         3.68086280885439    2.15676566170296   -3.11779674350853
H         2.65945795299520    4.51723303167918   -2.70443131899426
H         2.78729953463080    4.71783438261611   -0.24745147716941
H         0.25909170162181    3.83032442259453   -1.78633890727258
H         0.82945065727997    5.39413963988674   -1.41401257125709
H         0.14924265801744    4.35547130570926   -0.10357144658582
H         1.54429549394353    2.28146963602659    0.52415989384291
H         5.65416493291404    2.86798620812733    1.77212629840383
H         0.08712110702032    3.06499641090946   -5.33660920748840
H         4.31255003293070   -1.48947918788938    1.58361951588553
H         5.11623033507833    0.01338918825920    1.15207425929986
H         5.16061792428185   -1.30852258016229   -0.01820187070140
