36
 energy: -50.503711876792 gnorm: 0.306562916228 xtb: 6.4.1 (79825abcba525fcdf90b791dcacef51065a7a4e7)
C         1.47518460456585   -1.04497976661241   -2.94076017847931
C         2.14199433930178   -0.80968881560521   -1.59337577778448
C         3.27667056161009    0.28459275966197   -1.55904247099370
O         4.03837983359298    0.21711401116510   -2.77655805750507
C         2.47516993036267    1.64720327943879   -1.54214085969915
C         3.43638744069809    2.89114165946355   -1.77529901662477
N         2.76264147548637    4.02154422832256   -1.12705329052754
C         1.46170933196410    3.62980601484592   -0.56464252923478
C         0.19129427864794    3.96994109464410   -1.34622007235121
C         1.68079805231996    2.12766426386092   -0.31664424855397
C         2.58327030464205    1.93863388532359    0.89174848126525
C         3.27400012199663    2.38947568184731    1.90154249832384
C         3.67122000853758    3.15238738220286   -3.25415321595968
C         3.63246076060608    3.40602693031482   -4.53251526547857
C         4.25646007867391    0.05458005974247   -0.36279936006652
C         5.73714713098050    0.25658328371354   -0.52087594822955
O         3.83248368688689   -0.35390458562726    0.73117769648077
H         1.14937601126333   -2.09826864113496   -2.98116166039016
H         2.25284131877701   -0.82574795877404   -3.67927631321108
H         0.64962984819378   -0.35917194253308   -3.11284225545822
H         2.56335513939916   -1.78485937917861   -1.30454431827703
H         1.39063928104525   -0.55376563741979   -0.83586268461118
H         3.62143221976994    0.82888804724256   -3.40681512518210
H         1.76546778038515    1.57358480864820   -2.38250581480967
H         4.41822216961593    2.80212453289088   -1.31182776541942
H         2.74510635437024    4.85546682929199   -1.71119829895503
H         1.36950926463315    4.23787018944000    0.34319196593824
H         0.28195679697675    3.47315616074567   -2.31774557439389
H        -0.01834502672185    5.04204167799836   -1.43347324313732
H        -0.68126773017448    3.52581756102717   -0.85333257652187
H         0.74669798839365    1.57339056519342   -0.17667400327153
H         3.92464751536279    2.23420800482130    2.73147572871332
H         3.79746906065884    3.35736703896996   -5.58425965903900
H         6.00385041864872    1.30315788057295   -0.65735291414293
H         5.93558917832537   -0.33680341141088   -1.41915471023307
H         6.22610984046356   -0.22789074556913    0.32888328211516
