36
 energy: -50.518531970093 gnorm: 0.308656833128 xtb: 6.4.1 (79825abcba525fcdf90b791dcacef51065a7a4e7)
C         3.39881924004158   -0.40195919171200   -3.70137437355834
C         3.04149463830776   -0.78725189561463   -2.27333009928489
C         3.34657322141049    0.37978338802533   -1.25791058308812
O         4.74999020314939    0.64647584517504   -1.42037448026789
C         2.43600668580912    1.66984549982835   -1.33540051756308
C         2.65742207333549    2.61449003916005   -2.59409285538469
N         2.93755625767395    3.92950128197586   -2.00737626104794
C         2.17410130563589    3.99598260215825   -0.75242370992601
C         0.66154038756337    4.14395263335128   -0.92784911610584
C         2.58495121001958    2.64054292608383   -0.15249164713756
C         4.00342709411537    2.73386639176272    0.38567049323090
C         5.13839136129035    2.65804167751381    1.02297469405556
C         1.55954319442495    2.53582795973978   -3.64236743872245
C         0.59241900892962    2.66130593732500   -4.50779847616075
C         3.08920867032199   -0.29243584577970    0.12981265238648
C         4.21380342692703   -0.83247605425821    0.96759000848252
O         1.88340322757149   -0.48394656189088    0.35950461499940
H         3.25121723232292   -1.32575006951790   -4.28620344004001
H         4.46423329626708   -0.17550230869224   -3.81013466524083
H         2.72207645574078    0.37135868868787   -4.05561148484837
H         3.61433874990919   -1.63837728775692   -1.87412919480448
H         1.95548000501567   -0.94319405210580   -2.28388706968224
H         4.97853777284094    1.48762576240454   -0.98959660246549
H         1.44166945212899    1.19520317662276   -1.37170759420965
H         3.54688695599857    2.31724684378159   -3.14837417882426
H         2.71025072454635    4.66322772487864   -2.67591008653621
H         2.49825803123826    4.88252775502909   -0.19442149817657
H         0.33301278527584    3.39464131755893   -1.65550214499966
H         0.43696866971734    5.15189069269806   -1.29471397989461
H         0.14941727748913    4.09412117844308    0.04003259224068
H         2.03606222632095    2.35368253326606    0.75071703501045
H         6.09573897495887    2.82346423894911    1.46156350815902
H        -0.04942009488805    2.56901109391459   -5.35354430283722
H         3.83250741326477   -1.50765717367456    1.73167037619469
H         4.76502558405563    0.01531549690142    1.38686959119387
H         4.88648662753515   -1.46117882447701    0.37757262707081
