36
 energy: -50.508101660317 gnorm: 0.311892199268 xtb: 6.4.1 (79825abcba525fcdf90b791dcacef51065a7a4e7)
C         1.93109144459205   -0.52667544107275   -3.51572608183012
C         2.38246656862590   -0.81196653190208   -2.09083617200386
C         3.33287202073989    0.28738171978049   -1.47904867088653
O         4.51917216162708    0.41861876203694   -2.28065168553809
C         2.54936161560253    1.66051939490086   -1.47822292473828
C         3.29315141897739    2.93554113209673   -2.06710386098357
N         2.77626317859117    4.06329007783554   -1.28417669720079
C         1.63213166576048    3.60974060034456   -0.47953698031565
C         0.26265577485497    3.62750068628831   -1.16124812468373
C         2.12063830723453    2.20038735885290   -0.10401396976092
C         3.24153372535711    2.30715939308500    0.91706133174793
C         4.16867912404713    2.81826821413693    1.67812578116611
C         2.99003639584460    3.11986891085068   -3.54512615198824
C         2.78091212578643    3.17310351267656   -4.83100246424667
C         3.69431639071643   -0.15628390142474   -0.02426013044341
C         5.16395955124973   -0.08104168216386    0.28023165416996
O         2.87149726985142   -0.72883784142042    0.70960099838906
H         1.34802549548360   -1.36264330407503   -3.93809179903321
H         2.64275608325184   -0.24128411670765   -4.29694554978579
H         1.17430085381823    0.25325688670075   -3.49430570762743
H         2.94144650730132   -1.75868147432152   -2.03428171120645
H         1.52268565833132   -0.93970128211711   -1.42127079197185
H         4.25717171729494   -0.05991384428766   -3.08544921874416
H         1.57268203545009    1.53331914166241   -1.97342708312681
H         4.38062793980755    2.88538412943877   -2.02700210703247
H         2.52868678925889    4.93749466538237   -1.74399409276628
H         1.61325915098686    4.27734760440903    0.39014748665302
H         0.30298703098474    3.32756322056508   -2.21352549583279
H        -0.09499987287387    4.66298601923212   -1.18977839410675
H        -0.49319170993160    3.02546922243511   -0.64375324838007
H         1.35260929914352    1.51967963323710    0.27824556228719
H         5.00549902414717    2.93613906901763    2.32780119128910
H         2.67236001186109    3.35235628773155   -5.87591712408164
H         5.33858995459942    0.98657319896393    0.40179516501569
H         5.72331964340127   -0.38667897255626   -0.60976490600728
H         5.47568929408341   -0.59172471441953    1.19561013830447
