36
 energy: -50.517687385383 gnorm: 0.304585633855 xtb: 6.4.1 (79825abcba525fcdf90b791dcacef51065a7a4e7)
C         2.98670651747483   -0.52494142811551   -3.63242479950178
C         2.88946577293825   -0.79879099332771   -2.13877409291162
C         3.37603076020793    0.40787254583161   -1.24807846989143
O         4.72592337869737    0.73354974382234   -1.62066788965588
C         2.43248219853196    1.66185318153405   -1.43950737979941
C         2.84803894534869    2.52708533010630   -2.70614483247205
N         3.06435659000733    3.88018787941844   -2.18242135435930
C         2.37105960318483    4.09457778116645   -0.90352910222441
C         0.89870045184783    4.46248977258118   -1.09668457467221
C         2.45307006874779    2.68538430316764   -0.29248011298007
C         3.75789718548115    2.53218235549274    0.47195234000127
C         4.55206082604653    2.58120411141510    1.50488550431299
C         1.70189761679984    2.56295498002015   -3.70388169197689
C         0.53888356678181    2.27575007481609   -4.21862095071285
C         3.31357194018996   -0.16649752727930    0.20453602097494
C         4.53584976102228   -0.85313077811222    0.74564541376024
O         2.21594038594462   -0.17971770946374    0.78628484217367
H         2.63090904295757   -1.44665364102347   -4.12339906349085
H         4.05340671271413   -0.46917028771981   -3.87171313037926
H         2.35052354321365    0.31881220572642   -3.88705452628544
H         3.49016846583705   -1.69068276488790   -1.90295317485028
H         1.85436948205614   -0.93761451685204   -1.80238014729366
H         4.94300531255755    1.56854861794484   -1.17234984486118
H         1.42672374208317    1.24660729528944   -1.61651261934669
H         3.67800821404636    2.07398210954542   -3.24704923346163
H         2.69856496650310    4.56587141423383   -2.84044442249073
H         2.82467899492732    4.90562463470164   -0.32143048092258
H         0.43510813081910    3.61803619344203   -1.61712388732012
H         0.79710405017635    5.36957233135111   -1.70318339499861
H         0.42882257770446    4.49890571126404   -0.10701952040501
H         1.60413702975733    2.55659525354892    0.38728455164728
H         5.39346599644528    2.29919149812505    2.09543225334036
H        -0.32892799975464    2.32559305846104   -4.83520878796272
H         4.45946352310266   -1.00244698401757    1.82125910305353
H         5.39945319278254   -0.28068627540292    0.39225023737020
H         4.57852245755191   -1.82960647444853    0.25517153615719
