36
 energy: -50.520907360489 gnorm: 0.299079856889 xtb: 6.4.1 (79825abcba525fcdf90b791dcacef51065a7a4e7)
C         2.66826319439775   -0.46770135226906   -3.61011044526792
C         2.83546559696329   -0.80365941214820   -2.13545207293470
C         3.34550524507435    0.36192247921603   -1.20410922744033
O         4.69547912150063    0.59694503796536   -1.63934884345068
C         2.38036850570525    1.60846529038223   -1.32259318232141
C         2.89950260475725    2.51680993104191   -2.51887672049433
N         2.94038819112791    3.86267240754992   -1.93668373265824
C         2.06630685025600    3.93526051721852   -0.75647107885414
C         0.56953702261296    4.08646280809082   -1.03454963115052
C         2.39317564331591    2.57163396511932   -0.12432215893570
C         3.74408803275627    2.55693758580562    0.57225615354813
C         4.91409920903143    3.00499102382499    0.93332665778673
C         1.97250245232753    2.54166931932366   -3.72322637687048
C         1.10782630798581    2.83286759474874   -4.65466802217877
C         3.32381426794391   -0.27164574987421    0.22488053856407
C         4.66829877580670   -0.69562646076767    0.74529329437483
O         2.22847474084320   -0.50128760908734    0.76422961820895
H         2.17598709361478   -1.28767847274669   -4.16011293047464
H         3.63650194958769   -0.33872003967520   -4.10417133530320
H         2.11782970864464    0.45444331165091   -3.77791230551308
H         3.60057744762707   -1.59148718212368   -2.05891822229887
H         1.89159929273976   -1.08041169158426   -1.64926099526938
H         5.01681056061132    1.47155604745443   -1.36161076618465
H         1.37899705786101    1.19115893207749   -1.51860515570082
H         3.89041853702605    2.24750246659996   -2.88259114328979
H         2.77093397910914    4.58486229194803   -2.63431315909809
H         2.47616980824102    4.74578451711959   -0.14208556471667
H         0.19356938657505    3.20101833348244   -1.55753450784680
H         0.42530915858274    4.95331244483177   -1.68932550579090
H         0.02335216041526    4.30473156757021   -0.10956903733130
H         1.68367729208546    2.27238809289421    0.65440624271580
H         5.69028284898628    3.01178431331404    1.66389633326280
H         0.54391646029519    2.96511680638814   -5.54925038491342
H         5.38525979014416    0.12340345258981    0.76052159954203
H         5.11389547265279   -1.44459043964907    0.08280685158481
H         4.50841256556340   -1.19179986959263    1.70661463324475
