36
 energy: -50.517675747155 gnorm: 0.310288643925 xtb: 6.4.1 (79825abcba525fcdf90b791dcacef51065a7a4e7)
C         2.88756695618215   -0.97359272456668   -3.47373409285883
C         2.72619327060076   -0.94309105366018   -1.96096512577745
C         3.32462580452601    0.34201055965670   -1.27066563469869
O         4.65187037383928    0.70873099938223   -1.68423128926278
C         2.41863732361024    1.63744994579658   -1.29111019960503
C         2.70843265842180    2.44308213451965   -2.63001269587354
N         2.95329660366353    3.81945653977235   -2.18548910126153
C         2.26527798940797    4.03930648007959   -0.90467471088637
C         0.77420525733024    4.34279055297861   -1.06313364493670
C         2.52714868700562    2.70343831261885   -0.18856524683586
C         3.89532230218137    2.73009591961896    0.47309315557543
C         5.06419165035034    2.94235038505545    1.01044066835912
C         1.62590631247926    2.45403066729165   -3.69698137507319
C         0.85645728392083    2.63837486304712   -4.73332599734697
C         3.29058995901254   -0.07187557746986    0.23646103194866
C         4.50252381966095   -0.82554773647628    0.70701632126570
O         2.27498626130320    0.05815501273399    0.94005372295367
H         2.81691862655269   -2.01112143240278   -3.84216856923998
H         3.89604087271645   -0.59779323892761   -3.67366842282534
H         2.17572664182345   -0.30873137874057   -3.95615302233086
H         3.24761310953365   -1.76719855619898   -1.45018695732666
H         1.67852942854683   -0.96672909801750   -1.63585145661486
H         4.86507989188231    1.53795832111020   -1.22351390902017
H         1.37008014713590    1.29934958276768   -1.33017484006144
H         3.60054906513216    1.95766230135861   -3.02399869195715
H         2.68436793390474    4.50570631452280   -2.88812583960772
H         2.75472808623961    4.91106094449236   -0.45424258709437
H         0.25359686798057    3.42566321445920   -1.35761812190449
H         0.58128146240050    5.15883763261058   -1.76868944172093
H         0.40123884909910    4.75463251605655   -0.11823655671294
H         1.83036529262842    2.58559174643051    0.64807026228711
H         5.92244220110194    2.82284662325572    1.63121763285243
H         0.11308499985077    2.67328989041183   -5.49617614597347
H         4.19936381312314   -1.61723834504573    1.38994749756042
H         5.11603192393640   -0.11169924561939    1.26596165735277
H         5.02473109797368   -1.23364728813903   -0.16283693386732
