36
 energy: -50.527216343480 gnorm: 0.305370664712 xtb: 6.4.1 (79825abcba525fcdf90b791dcacef51065a7a4e7)
C         3.09559544392932   -0.43926621424158   -3.71881240277884
C         3.03931134239273   -0.85340930353511   -2.25567899471994
C         3.31501308805327    0.36069794668995   -1.28818058456681
O         4.69753766736144    0.67670593503409   -1.52453479684830
C         2.36156074619092    1.61499772440149   -1.41878308281434
C         2.84636828606805    2.49601183187735   -2.64941717828341
N         3.10074271760790    3.81116027806036   -2.05138347592829
C         2.27803113307278    3.95272811946743   -0.84089046778666
C         0.79077313286009    4.25546195985412   -1.03305080897755
C         2.38246589717422    2.55667438637798   -0.20366194253748
C         3.72758635626025    2.50160539637351    0.50204334267926
C         4.75271079875725    2.88485760005689    1.21076581653379
C         1.71706802065981    2.57869434175284   -3.66344374995648
C         0.57964500797458    2.63044680662829   -4.29876679843313
C         3.18046436719193   -0.25136324227272    0.14400957522245
C         4.43384082740112   -0.75857907985488    0.79975890820313
O         2.08472059742738   -0.31907525801809    0.72552668431042
H         3.01024055507386   -1.34635547731889   -4.34098969458863
H         4.11122821277088   -0.07310570229697   -3.89946451988181
H         2.35610626594492    0.28704604410283   -4.04609137150752
H         3.82394924208165   -1.59896396915324   -2.05463729244793
H         2.05969944380346   -1.30504192309322   -2.05506574372476
H         4.98199105171424    1.41868544069441   -0.96427643320397
H         1.33338876537219    1.24245250479087   -1.55800409477718
H         3.76180794857331    2.15809033363594   -3.13367780172633
H         2.95226505615468    4.59336316098486   -2.68626362715320
H         2.72037113130079    4.72016344264896   -0.19452779291517
H         0.40577525093423    3.48007417124632   -1.70344410593414
H         0.61715913400610    5.22427038886451   -1.51495310332872
H         0.23875874819614    4.21809001848005   -0.08677827336097
H         1.60310944666756    2.33503155188718    0.53310931795822
H         5.68081703586318    2.86607927903283    1.73469845681723
H        -0.21400987744099    2.87883494787667   -4.96523287741351
H         5.02304326564536   -1.43407661817338    0.18200608545583
H         4.13338915495212   -1.24789391877442    1.73179513225104
H         5.09566250575259    0.05531161563266    1.10873198406572
