36
 energy: -50.516616830315 gnorm: 0.298611856727 xtb: 6.4.1 (79825abcba525fcdf90b791dcacef51065a7a4e7)
C         3.10068261375427   -0.82610002530295   -3.47004091237231
C         2.64982931820239   -0.88509176962344   -2.01790694467644
C         3.20554007398409    0.33335213339739   -1.18562028628729
O         4.52468832737772    0.59893743708916   -1.69199062783238
C         2.33533681669774    1.64615259821961   -1.32235935100034
C         2.67880929979659    2.47354785062790   -2.63503913393934
N         2.93667438367850    3.83854544972045   -2.16360170807124
C         2.29687089598548    4.01883429333153   -0.85198569751459
C         0.79553500518160    4.31014483713926   -0.89246334020313
C         2.63986917958179    2.66350064347617   -0.21061551720450
C         4.04876553286508    2.57188800387663    0.35242957668985
C         5.25768526081068    2.96342326979011    0.64442812249654
C         1.63980200622585    2.55892747256143   -3.74119441653303
C         0.89290023499060    2.42171180893576   -4.80107855749814
C         3.13279460859402   -0.17539499953633    0.29078595553125
C         4.42945203319110   -0.58215604898081    0.93223170067953
O         2.07014247539977   -0.26995757470936    0.92736262349094
H         2.91678279621539   -1.77017134461671   -4.01051401307885
H         4.15778988732422   -0.54500114224182   -3.51158921412022
H         2.58385412251711   -0.06168850989377   -4.04453948906649
H         3.08751963452960   -1.79205955201654   -1.57320165517021
H         1.55478115342640   -0.93521050299948   -1.97084516538729
H         4.88974139896214    1.39701653522656   -1.27349001807354
H         1.28111260174861    1.33602958716984   -1.23435322478102
H         3.60633156145884    2.10144934619253   -3.06859907971639
H         2.60703082999710    4.57832435895699   -2.78087155647531
H         2.77978313932130    4.82951457138224   -0.29341644547881
H         0.42254373954515    3.71923726965003   -1.73542391248829
H         0.64102193999367    5.36429273565243   -1.14909407890624
H         0.22447446692581    4.01926286447441   -0.00317947576713
H         2.01094314692137    2.55574994680275    0.67943827678808
H         6.17407220440664    3.03411450737821    1.18431417234166
H         0.06413590055728    2.56115166580343   -5.45641662105375
H         4.29587968863467   -1.41129732398476    1.62487747696393
H         4.73861929409475    0.35833330902287    1.39944377592147
H         5.17059600083444   -0.73773459154573    0.14331389420352
