36
 energy: -50.516676541409 gnorm: 0.302039202211 xtb: 6.4.1 (79825abcba525fcdf90b791dcacef51065a7a4e7)
C         3.20289468619664   -0.81825480575532   -3.52669719381841
C         2.84521876632061   -0.82345139706995   -2.04768309258804
C         3.36962127846257    0.43369281097191   -1.25350961139114
O         4.72667222883402    0.73285618500352   -1.62230842986899
C         2.40179047765752    1.66745563895821   -1.45482813925483
C         2.60884948330612    2.48060507147993   -2.80449440364732
N         2.91370340294716    3.81016439442049   -2.26477026173178
C         2.35052513327640    4.00387422395422   -0.92033884672748
C         0.97917611931259    4.67792074821544   -0.84568724969511
C         2.47131974095159    2.62341918392947   -0.25274215717934
C         3.80213218745981    2.52014481309865    0.47435769262084
C         4.91577192145859    2.72356839957426    1.12125434651210
C         1.39020484783231    2.30125100311438   -3.69507999345166
C         0.52941600337140    2.22274753552780   -4.67125853268842
C         3.21707900186785   -0.11866577083092    0.20097373103306
C         4.47492049488526   -0.56736542237874    0.88998103941236
O         2.08787701286819   -0.29319798853776    0.68866509284550
H         2.93699507899472   -1.79866191278085   -3.95716237945064
H         4.28674946967039   -0.73080864369866   -3.65251693929045
H         2.69800013520556    0.02977915939515   -3.98211475673254
H         3.29321283845324   -1.72916966697968   -1.61075988145807
H         1.75565184647813   -0.78943816532497   -1.92300665254869
H         5.08378445573338    1.47318508974798   -1.10296199526216
H         1.39700555177617    1.22582508847265   -1.55817112792633
H         3.46014643068692    2.01117790405476   -3.29608437392464
H         2.78941309259101    4.55914158234228   -2.94340480811998
H         3.00574482475744    4.71672841967833   -0.40562300570533
H         0.14105240260389    4.06813592660848   -1.19865730325961
H         0.95060315096210    5.65950330158655   -1.33214452666312
H         0.78516612811824    4.91978725119863    0.20569706009879
H         1.70106467925489    2.39179545319058    0.49050173850938
H         5.72966795324910    2.70519687397772    1.80934950567213
H        -0.39570351896845    2.10727826280758   -5.18757479461165
H         4.74474789613755    0.08873082600587    1.71569641606165
H         5.30344676065925   -0.59380737999576    0.17497279206644
H         4.37818104228117   -1.55854215285776    1.34175590857207
