36
 energy: -50.509334273629 gnorm: 0.310988384833 xtb: 6.4.1 (79825abcba525fcdf90b791dcacef51065a7a4e7)
C         3.14064806542931   -0.40378419484795   -3.87652039390305
C         2.93042160844287   -0.64747913367682   -2.38928827284064
C         3.33354405139595    0.49758058889401   -1.38308173884620
O         4.67973308996397    0.92541695526744   -1.65109238570799
C         2.35445682197271    1.73859322859688   -1.35715568358653
C         2.81218194224543    2.90263689279490   -2.33755078099472
N         2.16782986284846    4.11194898327571   -1.81377528818251
C         1.80370817119571    3.85927115222011   -0.41172021347709
C         0.28620720138659    3.94106006176243   -0.23562048287027
C         2.31859074384397    2.46826376059556   -0.00437858023152
C         3.68072690497846    2.68105106264449    0.63570596061309
C         4.83948579508277    2.57529014311410    1.22404461122839
C         2.41415594941269    2.63177057357086   -3.77929004992885
C         2.21534599560238    2.76033583287198   -5.06147193493824
C         3.24498063569807   -0.29655347280014   -0.03943053100929
C         4.47133818599932   -0.94287548839280    0.54069245636227
O         2.09585236618073   -0.40708500030035    0.41957764133663
H         3.30589830042379   -1.34405169809097   -4.42950353268838
H         4.04123476186601    0.19780602147007   -4.03542741728606
H         2.29043592281990    0.16975809930321   -4.23662290311185
H         3.56533673418485   -1.52101858829776   -2.17542437547330
H         1.87686210632329   -0.91755599061888   -2.24462298281760
H         5.09466857255278    0.16053658277208   -2.08482423636665
H         1.32476353461315    1.41714049244036   -1.58455386754458
H         3.88692089031236    3.07866710742247   -2.31150019759469
H         1.42278777171196    4.38367629001870   -2.45255250099682
H         2.22848404276573    4.66954946146325    0.19278030618202
H        -0.18140380162573    3.26489126696344   -0.95881649650150
H        -0.06861750563582    4.96987407052658   -0.36447147394558
H        -0.04759670262059    3.64703358745804    0.76621365537235
H         1.72555300895368    1.93562550229050    0.74659188841910
H         5.86516214085623    2.58100348009251    1.51420768381036
H         2.23396603730946    2.55791477090205   -6.10762717713258
H         5.18871884597227   -0.14467186868814    0.72320538428021
H         4.94551657738966   -1.61050929444973   -0.18581404596766
H         4.24982593007688   -1.42710029006823    1.49586208966415
