36
 energy: -50.517271010769 gnorm: 0.309235609424 xtb: 6.4.1 (79825abcba525fcdf90b791dcacef51065a7a4e7)
C         3.27477718790686   -0.64874983192795   -3.66523777003638
C         2.96872682198314   -0.82991364230187   -2.18572615513684
C         3.45877219170386    0.39727238704868   -1.32549884020562
O         4.82467292018241    0.75060538412646   -1.60221089150661
C         2.49304355327782    1.64473755858804   -1.42843158718025
C         2.84861199145289    2.64937003267692   -2.60740111461331
N         2.99102730147070    3.96230506646015   -1.96874192973232
C         2.10775608057352    3.99184685789294   -0.79351924948356
C         0.66161156307520    4.31108090865100   -1.17727094614986
C         2.37984443742473    2.59021841770087   -0.22138427040725
C         3.68277574413268    2.54846468995356    0.56029863473410
C         4.70875984581864    2.45877563694752    1.35990001857169
C         1.73119671858177    2.56391652020519   -3.63428287479344
C         0.57459538422577    2.58098961883830   -4.23596938498753
C         3.23789606104270   -0.15655332909763    0.11962459845593
C         4.45366786540999   -0.81597850403014    0.70723418861087
O         2.12324785568875   -0.12627488946965    0.66738739682850
H         3.01345146789158   -1.62041775845846   -4.11775437903750
H         4.32825827104227   -0.40682720853144   -3.83806624027432
H         2.65995001998741    0.14524108536165   -4.08123205382222
H         3.51283316638483   -1.73204662817867   -1.86630398843425
H         1.90194983375544   -0.99068932317267   -1.98573811882262
H         5.03448220551370    1.57999042003759   -1.14021816871747
H         1.49438469366503    1.21649195432073   -1.61443224816275
H         3.77984706296591    2.28493499959901   -3.03950921763761
H         2.79798328217896    4.78561011862319   -2.53607125472418
H         2.47485647644946    4.74146970100263   -0.08238688634956
H         0.46572541459062    3.57261744696958   -1.96160320682157
H         0.69153055555150    5.33376656126154   -1.56992896900823
H        -0.03849599801507    4.21654901434180   -0.33914125891630
H         1.62360826494241    2.21544558931307    0.47647393333768
H         5.52517847770281    2.26524228394333    2.01735317414271
H        -0.25412402687681    2.79786110838466   -4.86996675374765
H         4.38723949974616   -0.67027161630493    1.78400332606357
H         5.27561943755154   -0.28492307976310    0.21655353924925
H         4.49701464055870   -1.84111105506211    0.32892918019060
