36
 energy: -50.501135999975 gnorm: 0.297323359892 xtb: 6.4.1 (79825abcba525fcdf90b791dcacef51065a7a4e7)
C         1.65763222344800   -1.10198845691496   -2.97163075830553
C         2.20652789073578   -0.79558085593690   -1.58589279266027
C         3.33214504747710    0.30729966956260   -1.63844407568422
O         4.21231922625155    0.21633938892423   -2.77163348173029
C         2.59966892720988    1.70832396785331   -1.63599704344579
C         3.49382308764061    2.97100718241784   -1.99904518938391
N         2.89487521039723    4.12562803690196   -1.32075451512631
C         1.70463636211249    3.68998305772927   -0.57527878404523
C         0.39297498134787    4.19781913740637   -1.17707332080522
C         1.92067327861204    2.18509979246257   -0.34163964070959
C         2.79753012397555    1.99210037653681    0.88484921422506
C         2.93927209458347    1.88110645654577    2.17622038755683
C         3.48805453556876    3.07689107057404   -3.51534356214243
C         2.90328238503428    3.02183222406099   -4.67941182097559
C         4.11702422823300   -0.03546080879916   -0.33063259980719
C         5.48510008661919    0.57381452774033   -0.20661778370625
O         3.66447879974144   -0.74293857814011    0.58483412541890
H         0.98607445048075   -1.97669011107414   -2.93834192793232
H         2.45181000349205   -1.39242775562499   -3.66671729810429
H         1.12580202100931   -0.25915454538877   -3.40553501284444
H         2.73836228510241   -1.64630549288306   -1.13274167287079
H         1.33592021605973   -0.53118083011972   -0.97271085923457
H         4.21494179656221    1.08378032083700   -3.21081010388905
H         1.85597745709752    1.69554221993380   -2.44967369908639
H         4.48967769419666    2.75416897245897   -1.61435845794955
H         2.65598524442423    4.85217353094029   -1.99308107794224
H         1.80591536041123    4.11632089088854    0.42990029511643
H         0.33656319923723    3.83988497037313   -2.21030979192967
H         0.41409931623761    5.29332970760430   -1.15779203471595
H        -0.50798424561798    3.87046183933036   -0.64541749043100
H         0.99673255846688    1.62042772047502   -0.17783206859526
H         3.33943935038033    1.76113409681056    3.15688956529414
H         2.75228331066487    3.11341951250421   -5.73039843038609
H         5.42746593061253    1.30002407407588    0.60231546312256
H         5.70117426853718    1.11501470245352   -1.13333568189888
H         6.30222102540825   -0.13069493316081   -0.02809564730423
