36
 energy: -50.518535377020 gnorm: 0.305863506242 xtb: 6.4.1 (79825abcba525fcdf90b791dcacef51065a7a4e7)
C         3.47861070760177   -0.67037965643620   -3.65887088696561
C         2.96594858460936   -0.77746844571781   -2.23018221561306
C         3.39019417337356    0.39123197646199   -1.26050387754881
O         4.75536625066827    0.77492486814601   -1.49753458666783
C         2.46550473116511    1.66481378394053   -1.40995337213851
C         2.71345193766981    2.54539178630307   -2.70948752939089
N         2.90218674768843    3.88738317854337   -2.14787879693134
C         2.20208237572235    3.99932167757227   -0.85965802319012
C         0.72174836265682    4.38520270749700   -0.84493530706865
C         2.49656529224585    2.63348469928194   -0.21646134222097
C         3.80782122386000    2.62786746267600    0.55228950281500
C         4.94375993426583    2.67175707845628    1.19085572522503
C         1.57982533457285    2.52238204685398   -3.72179510479593
C         0.50162499650245    2.61881745970359   -4.44858877337608
C         3.15728282851936   -0.26163134403972    0.14071443072139
C         4.35888478138400   -0.90619332422681    0.77231579254684
O         2.04263356387300   -0.24390270937961    0.68902475526934
H         3.22975449245816   -1.58818725691112   -4.21824622227017
H         4.55835993931510   -0.49734829379962   -3.60967356728924
H         2.98327511502742    0.20365443562968   -4.07383152096381
H         3.34658399274868   -1.76760984559301   -1.93579665809025
H         1.86926108263948   -0.76884364103017   -2.19763496565880
H         4.86397129514524    1.70041803842436   -1.22003847812552
H         1.45067004349527    1.23459282170857   -1.42813429508666
H         3.59960637807890    2.15675579137309   -3.20990879508425
H         2.45481262675252    4.52995832705668   -2.79896508385618
H         2.79313970172304    4.71748274934405   -0.27888072585946
H         0.15261421249993    3.58804300369153   -1.33432215438020
H         0.52567221542814    5.33493871420919   -1.35534403824552
H         0.42973574326326    4.50115518396858    0.20522273206087
H         1.67931085793918    2.34588714945983    0.45341681636653
H         5.81931861444211    2.58635592467214    1.79280492720909
H        -0.17900943929307    2.76626437643140   -5.25528447050315
H         4.13026176796552   -1.90410446800488    1.14242370427740
H         4.59320794864669   -0.38050518809590    1.70351737352753
H         5.17714886057246   -0.99219142199066    0.05194186725058
