36
 energy: -50.516666779502 gnorm: 0.308251071909 xtb: 6.4.1 (79825abcba525fcdf90b791dcacef51065a7a4e7)
C         3.22946079302369   -0.60480100789552   -3.65265455298630
C         2.97305315187350   -0.79165713875919   -2.16444029319519
C         3.33563537005182    0.40215095779227   -1.20034619015061
O         4.68475171627287    0.77392378603238   -1.53014711264206
C         2.37052891702886    1.64596691932063   -1.34487212856611
C         2.71900227206441    2.55285614336612   -2.60256952595816
N         3.01790688524582    3.88451880567037   -2.06470645397569
C         2.26247160444980    4.03780948237061   -0.81250493578910
C         0.78075876257343    4.34380289114406   -1.03923127259588
C         2.41472397644677    2.64523375661304   -0.17730030663989
C         3.78179393727348    2.65641935513146    0.48707626912165
C         5.04782650433948    2.58654378799471    0.79093296854505
C         1.59005681362496    2.57423366586116   -3.62013058757771
C         0.65676035399475    2.49308237340995   -4.52700267041576
C         3.18908092259544   -0.17448419433881    0.24530406218029
C         4.37165426499233   -0.88095545556662    0.84584242344439
O         2.05686513596265   -0.26866823854883    0.74791551936545
H         3.18222730073596   -1.53942647038121   -4.23698768716493
H         4.10932018746092    0.02019312336750   -3.83554361998650
H         2.38851239961951   -0.00245284163322   -3.98652242721409
H         3.57192493133171   -1.65583879550064   -1.83814468690407
H         1.91965430067169   -1.03760544742248   -1.98081710808905
H         4.87574324945751    1.46830454351710   -0.87692865259164
H         1.37660283253915    1.18505836182319   -1.46728256833358
H         3.59708327853434    2.26895187823932   -3.18144877462933
H         2.76092359482701    4.66209770680066   -2.66992576606090
H         2.83802117879511    4.69886601019085   -0.15360181630554
H         0.28535539473559    3.50742596673991   -1.54314188800192
H         0.72987158849281    5.24444472953767   -1.66149825135271
H         0.23401762916811    4.46560182637687   -0.09700656004261
H         1.74254459969477    2.38223496111528    0.64632609293123
H         5.84141467910033    2.64874339464590    1.49986756403335
H        -0.02553673589003    2.46421258670189   -5.34517073938253
H         4.97297398150574   -0.17428566109464    1.41514673502831
H         5.04889688594458   -1.17585332700262    0.03790095014322
H         4.03010846125451   -1.67578597591692    1.51478283679925
