36
 energy: -50.514209739237 gnorm: 0.300269480478 xtb: 6.4.1 (79825abcba525fcdf90b791dcacef51065a7a4e7)
C         2.58571444498453   -0.64486776245146   -3.54833446472469
C         2.92281187710199   -0.83876251936035   -2.07720839661197
C         3.40832158568171    0.38311271407771   -1.20690827702615
O         4.75755404692429    0.61164990947146   -1.64786302840824
C         2.46105430010935    1.63024122534812   -1.42312917678686
C         2.82270408637923    2.64787527737655   -2.58902575331421
N         2.85495028110851    3.96346303641297   -1.94083201487427
C         1.97712382167714    3.89357146883006   -0.76323912996908
C         0.49807544126770    3.96338705667521   -1.14801360006951
C         2.46270943804175    2.55065561869265   -0.19164797642212
C         3.84365615036223    2.64694051240419    0.43613936896320
C         5.00471975002612    2.49816410586333    1.01046227246971
C         1.83634876101235    2.60719760335430   -3.74481719859596
C         1.19336696589632    3.11297039144894   -4.76010686707791
C         3.36501529559716   -0.12118586434200    0.27217874677385
C         4.63686475994721   -0.75754204179073    0.75764492000063
O         2.30281762987571   -0.04190849628031    0.91159464858674
H         2.15248413128164   -1.58290488065059   -3.93511454393709
H         3.47010579013108   -0.39715206348095   -4.14390772462166
H         1.83625010458655    0.12725040186171   -3.70202899233601
H         3.78338896450997   -1.51870414172452   -1.98227349949528
H         2.10010268996088   -1.20627314723579   -1.45115510969833
H         5.11949884056433    1.35076032600942   -1.13012901318441
H         1.52795788891041    1.06169192592157   -1.56939208932958
H         3.79843114037886    2.43183539231191   -3.02262989574969
H         2.61651831486965    4.72616373031920   -2.57201948348969
H         2.17111880429535    4.72490300654945   -0.07500939229826
H         0.21958739267853    3.03381686699748   -1.65518263456719
H         0.25035999904778    4.78166812813199   -1.83358967819837
H        -0.10209745283838    4.07408042604027   -0.23747105398980
H         1.82714752349066    2.18228809845537    0.62058372181456
H         5.69495663372018    2.47819269109217    1.82250500531229
H         0.56476053354376    3.44265576076107   -5.55504289621267
H         5.25845931960190    0.00998195854220    1.21546814475092
H         5.24310597843269   -1.21878581844564   -0.02855957058571
H         4.35534176488461   -1.53785144304209    1.47021239518701
