36
 energy: -50.519395722200 gnorm: 0.312346362565 xtb: 6.4.1 (79825abcba525fcdf90b791dcacef51065a7a4e7)
C         2.67229275121056   -0.66560964203099   -3.50610060055992
C         2.80235682084158   -0.91196739003418   -2.01016177280496
C         3.35863260347359    0.34782544411138   -1.24230740071005
O         4.68701138633024    0.61819595319749   -1.72127313683521
C         2.40572863811734    1.60286927811995   -1.36972537128485
C         2.79975582631045    2.44589455598551   -2.65803255892943
N         3.05292350699880    3.76268491737107   -2.06310789509877
C         2.23395869257949    3.96648427534108   -0.85896854501842
C         0.74392147534608    4.21151536593253   -1.10444476344326
C         2.47505860288363    2.59784166957895   -0.19971058190389
C         3.82314456322105    2.70362537394570    0.49446199705584
C         5.01743889958492    2.88179195346548    0.98636398181528
C         1.70551031268662    2.49422245854988   -3.71192842580644
C         0.82105324257694    2.72511154525214   -4.64169758293290
C         3.31304127477850   -0.04501209631774    0.27013798496944
C         4.54436808560562   -0.66634961678842    0.86679672085347
O         2.23452123886631   -0.13053731972160    0.88077819412573
H         2.30897958458727   -1.62650351496739   -3.90845303548600
H         3.63806381751421   -0.44823590954728   -3.97327673214774
H         1.89333938491863    0.05785244476408   -3.73263874439085
H         3.59302366783457   -1.67016556531430   -1.90103966826910
H         1.91152558925190   -1.20117090031276   -1.43863904347266
H         5.18230334588848    1.21439056771298   -1.13426836190245
H         1.38255639750005    1.19287748905683   -1.38803794818154
H         3.71136068305922    2.08808967760770   -3.13519218598393
H         2.93631188960179    4.50453115194032   -2.75087650871447
H         2.75382950355904    4.79312449826708   -0.36016334061000
H         0.43226637789221    3.34340127057908   -1.69446661135977
H         0.61895651814830    5.13341690879773   -1.68361893145806
H         0.11844972949996    4.24576279938720   -0.20491129685161
H         1.67373730212568    2.34237690316252    0.50169929704492
H         5.96878894992203    3.07222533531856    1.42784716384554
H         0.08867508917375    3.02156907270962   -5.35688772221352
H         5.17421372011980    0.12724678237606    1.26501052228686
H         5.03733606275192   -1.17484741619386    0.03204866853036
H         4.23334407603838   -1.37071439922981    1.64334336343796
