36
 energy: -50.516634615502 gnorm: 0.314029952233 xtb: 6.4.1 (79825abcba525fcdf90b791dcacef51065a7a4e7)
C         2.74400696076166   -0.68396535073870   -3.54491992993038
C         2.92939073580239   -0.82352989977846   -2.04105944742402
C         3.42270066505782    0.40367773369234   -1.18273096431083
O         4.76138014209235    0.71790483811850   -1.60260850937301
C         2.44101264189784    1.62254967422837   -1.40641853312524
C         2.76156240929502    2.35990791633093   -2.77727051248249
N         3.05650696563197    3.74848094576169   -2.40735328999190
C         2.44752967996756    4.07964007097175   -1.11056132045813
C         1.08653784253986    4.77543026375159   -1.17449047898881
C         2.42668967495078    2.74156755150577   -0.35223393510042
C         3.65828217835317    2.59703840755066    0.52679551734949
C         4.63526975335054    2.67224828382477    1.38696331092523
C         1.50960513623380    2.36393493599659   -3.63924043798324
C         0.37771793172597    2.11295340012448   -4.23580094579313
C         3.35548558662876   -0.10522621001434    0.29388334451955
C         4.62959945080014   -0.74005404869578    0.77539673120290
O         2.31394856876041   -0.24068503266771    0.95739899879779
H         2.24827085190911   -1.59708190709439   -3.91595204904922
H         3.69961187057012   -0.54985156316907   -4.06169006652379
H         2.09281849668197    0.15692093077237   -3.76930600462459
H         3.69991348943516   -1.58208804469845   -1.83415272568834
H         2.00626645137809   -1.20893986433689   -1.59032904845612
H         4.96995335155498    1.55356537963884   -1.15149274940109
H         1.40207205608169    1.25692931303358   -1.35915045450520
H         3.62008221249676    1.97906621389147   -3.32920566275876
H         2.65488269630872    4.36010670990781   -3.11557052150704
H         3.08564727539399    4.76980744675954   -0.54586558177255
H         0.35767926335607    4.05526373164524   -1.56049837672531
H         1.19650304930459    5.60740035603682   -1.87925627763672
H         0.71649588243749    5.03583364392066   -0.17608811653275
H         1.56142470512222    2.59811788582015    0.30358054194916
H         5.38553709335417    2.69635192992552    2.14377050964959
H        -0.49994357155376    2.16691044955531   -4.83793108716850
H         5.08089582316037   -0.11159381332726    1.54119325339430
H         5.24870606382849   -0.83675493781550   -0.12223776399009
H         4.37592917222678   -1.67619627319183    1.28054967164894
