36
 energy: -50.504961243619 gnorm: 0.311862677235 xtb: 6.4.1 (79825abcba525fcdf90b791dcacef51065a7a4e7)
C         3.49215466199068   -0.24160204694908   -3.87667659323948
C         3.26627563992924   -0.72204991362352   -2.45063651916685
C         3.56981313623754    0.41995083455216   -1.40669190992414
O         4.91448606667996    0.89526732228108   -1.58842669179517
C         2.53695778582796    1.60937478875013   -1.54039618351915
C         2.88048955047772    2.79427202191033   -2.54223897627181
N         2.85841679022968    4.04190088289948   -1.77094063980276
C         2.01793163134136    3.87805705389066   -0.57556244662760
C         0.58624627937420    4.38864748695686   -0.74901037783219
C         2.20313337696087    2.38498708418532   -0.25560118080335
C         3.40233420501648    2.31582989061125    0.67581508515722
C         4.25142633764529    2.39371131718555    1.66223637708007
C         1.78327394728737    2.58601759505557   -3.57333229297425
C         0.72571473574935    2.74513523190619   -4.31918411082435
C         3.22408708091190   -0.28237956015590   -0.05351178515445
C         4.40991376244957   -0.84567005505244    0.67775189332920
O         2.06843163105045   -0.49007039634032    0.35235332074407
H         3.63435391690975   -1.05978847112579   -4.60300387345464
H         4.43977163048371    0.29757549877871   -3.77906364301520
H         2.70097911599160    0.39054316642582   -4.27154233287323
H         3.95267896305224   -1.57314734865478   -2.32253579234557
H         2.24494354135278   -1.09196872999926   -2.29604675771808
H         5.49350595654046    0.11823754879998   -1.50907020204105
H         1.59663029827010    1.06611614213561   -1.73003885881037
H         3.84304931434253    2.78681169107232   -3.05229007299250
H         2.49585216803263    4.76976856933391   -2.38389684022723
H         2.54737927689114    4.47292808847576    0.17824124242354
H         0.02086461548737    3.65271896591531   -1.33006936508072
H         0.51271268032647    5.32342226140531   -1.31624079158436
H         0.07644475179325    4.55991656896511    0.20614278041465
H         1.29602136301834    1.98253301462308    0.20757528157460
H         5.19537537652573    2.31364823403769    2.15089714417748
H        -0.11279440812374    2.69256521587748   -4.97485217001096
H         5.14506395460967   -0.07880062641532    0.91553429448787
H         5.01370054790370   -1.47064632736351    0.01199073468205
H         4.09660960844519   -1.36250269043811    1.58913265880191
