36
 energy: -50.515163275083 gnorm: 0.310543001958 xtb: 6.4.1 (79825abcba525fcdf90b791dcacef51065a7a4e7)
C         3.44697551407136   -0.14586658508193   -3.89981306619996
C         3.33033477367785   -0.67881661884027   -2.47931984896350
C         3.49406079189160    0.42856918729609   -1.36890931649795
O         4.80265657512098    1.02034442371941   -1.43582527714761
C         2.34752366410526    1.51132360618828   -1.48067631842707
C         2.76460824708312    2.58594950755526   -2.57470745980786
N         3.07139246624147    3.77873682640739   -1.77777085731112
C         2.13120256170941    3.82274573361654   -0.64803846188451
C         0.69400697537097    4.26632654200489   -0.92770726551927
C         2.25212892720090    2.35631839849299   -0.19981917789878
C         3.46549935070669    2.35315282500741    0.71567182822799
C         4.48018509568462    2.58707765834775    1.50036408094726
C         1.59359509678320    2.64687982833498   -3.54187913301796
C         0.62967843722685    2.73233453684647   -4.41572521197890
C         3.23361790082050   -0.29066008000348   -0.00554226139288
C         4.36865977060725   -1.04404796053825    0.62874027523684
O         2.12817055066138   -0.27480624941770    0.56114664190038
H         3.30138471960703   -0.95891656609033   -4.63121857715559
H         4.47058602592969    0.22639051531862   -4.00873874386416
H         2.72081457769854    0.59596748625009   -4.22208278602594
H         4.12336830287531   -1.44054086391981   -2.42640330788229
H         2.35808923777812   -1.17002939394178   -2.34776828805044
H         4.79092684097534    1.87191063377621   -0.96674729067506
H         1.40046840059188    0.99257331796130   -1.70270003598554
H         3.66796865836344    2.31967634529526   -3.12221786525526
H         3.15873452997189    4.60418670992288   -2.36765527196384
H         2.60131958741750    4.40143098237648    0.15602604104185
H        -0.00944597200410    3.48639975336922   -1.23713401538989
H         0.66972701387613    5.10020148276384   -1.63835800987368
H         0.32761323946253    4.61951434155219    0.04314919344873
H         1.47782250444573    1.99118911581509    0.48317723276533
H         5.20646984805829    2.37953020334757    2.25247692904126
H        -0.06604029596029    2.83697497548346   -5.21621730132437
H         5.30499583661009   -0.62436582791962    0.26512415965907
H         4.15025323663875   -2.08075561384621    0.35319068084749
H         4.35401005618698   -0.92143413618871    1.71531360695958
