36
 energy: -50.523676661802 gnorm: 0.307343085894 xtb: 6.4.1 (79825abcba525fcdf90b791dcacef51065a7a4e7)
C         3.43998498231293   -0.25306126468173   -3.70673694093429
C         3.08052557023488   -0.74473030438009   -2.31228641795308
C         3.38368393547514    0.38588939727050   -1.25591756766458
O         4.68975512917175    0.91015488409955   -1.54989427977075
C         2.37349447464207    1.58819894230147   -1.43857930457005
C         2.78547893572259    2.63732609468004   -2.55897453288620
N         2.99247023402459    3.91749783322069   -1.87320417473797
C         2.06867461254433    3.89289184815018   -0.72944488709564
C         0.60390372121321    4.17499914963902   -1.06910857805696
C         2.26871932074116    2.46909632536659   -0.18289092800660
C         3.53275036401136    2.36890956117682    0.65531530242307
C         4.64164688201452    2.56429261052249    1.31275265367969
C         1.76069290547813    2.66145317426720   -3.68130994632325
C         0.75609465836850    2.87192732548636   -4.48537944629939
C         3.25586192068392   -0.34491619005296    0.12011863070082
C         4.55856351866814   -0.91818210208772    0.60236585445004
O         2.16500057969643   -0.48919411498774    0.69683943075898
H         3.32819855965821   -1.06156615233784   -4.44904726231920
H         4.50584421497287   -0.00762334619632   -3.66288542724077
H         2.81880748542990    0.58677429397793   -4.00723655827756
H         3.62640654509101   -1.63302335081602   -1.95890901748270
H         2.02423786477552   -1.03628922172763   -2.25654721910120
H         4.80724300025682    1.55607661223994   -0.83273427119950
H         1.35209818629066    1.22948228728976   -1.64686283548456
H         3.75441939816719    2.37196311876816   -2.98024158297254
H         2.81528622616217    4.73488016309406   -2.45411012054356
H         2.36021295017424    4.62537321576822    0.03271178401862
H         0.22389120306797    3.42733931130235   -1.77300630532601
H         0.54765057275334    5.19757342594470   -1.45915837773988
H        -0.01405936910835    4.16423860954090   -0.16381631500315
H         1.51034032318536    2.19195553006676    0.55697945312449
H         5.55014185652661    2.47736454790506    1.86349724077438
H         0.01583133013722    2.89754099582666   -5.25161432965700
H         5.39943918606311   -0.55619673233189    0.01332451967450
H         4.40840236115499   -1.99558814928816    0.47972988242823
H         4.72056664804733   -0.79702840057393    1.67705982276722
