36
 energy: -50.517107112191 gnorm: 0.308661179355 xtb: 6.4.1 (79825abcba525fcdf90b791dcacef51065a7a4e7)
C         3.05144146397796   -0.58850408124504   -3.73413744423045
C         3.04303548671266   -0.82302121000414   -2.23068380766516
C         3.39129272570011    0.43306134705875   -1.34350029020551
O         4.76948178494046    0.80999103068564   -1.50355508304546
C         2.41345019542884    1.67317276047609   -1.41660318689571
C         2.82917358997993    2.64705500466297   -2.60168206010166
N         2.94569291448963    3.94577777192828   -1.92958942120995
C         2.15600236494104    3.97935727296369   -0.68964975504301
C         0.66828008200440    4.19850301877615   -0.97101655144804
C         2.45889876670338    2.56538725461150   -0.16536416980383
C         3.79462026504968    2.49486550667572    0.55663050848690
C         4.93937248574667    2.69846164286766    1.14666512632036
C         1.76821103035580    2.58706131672139   -3.68849602131506
C         0.76423727698442    2.50497538965017   -4.51635072795214
C         3.19333653345071   -0.24628726397766    0.05048313733698
C         4.37622060294825   -0.82283941998038    0.77615564102323
O         2.07692619549251   -0.26223114853182    0.59525397266635
H         2.59351687398489   -1.44394977505420   -4.25922668149519
H         4.09763049361474   -0.62475054517154   -4.05412703871778
H         2.56976752225873    0.34717676583412   -4.00612427358538
H         3.73560881244596   -1.62508428567991   -1.93241684804600
H         2.01833605434112   -1.04773261364603   -1.90919811400156
H         4.89264462882827    1.55769234665429   -0.89436675897426
H         1.41590668878787    1.21088019704783   -1.49724191603518
H         3.77485165195507    2.36412831452470   -3.06252321203358
H         2.87155036437557    4.76352073009448   -2.53188428613452
H         2.60799796770440    4.72900801499655   -0.02924829212936
H         0.26228218818803    3.29945278577563   -1.44614932231511
H         0.53734844868789    4.95704692489864   -1.75103543807186
H         0.11109077505541    4.42816229340462   -0.05540476396391
H         1.68267685293724    2.27696367983939    0.55132634479020
H         5.82800876067864    2.77357319736208    1.73055127224259
H         0.14295537473977    2.74321130315963   -5.34882549273220
H         3.97959801696947   -1.68614386786629    1.30763561228759
H         4.66033912477317   -0.17234333844145    1.60953626442116
H         5.15663958493839   -0.92509021198960    0.01695779989338
