36
 energy: -50.522483145430 gnorm: 0.306380623746 xtb: 6.4.1 (79825abcba525fcdf90b791dcacef51065a7a4e7)
C         3.12213683581449   -0.58433636989630   -3.64829393490778
C         2.91421123548389   -0.88446583333037   -2.17109014774957
C         3.34052855383096    0.31081924018672   -1.23531869849619
O         4.70341891660510    0.61629973721547   -1.57636138935182
C         2.39398465750116    1.55757557734271   -1.45679017300882
C         2.74342490313097    2.48721766518456   -2.69749222436811
N         3.02021964748359    3.83801234631381   -2.19678822779267
C         2.33580292850485    3.96685381985660   -0.90173504100955
C         0.85971843738443    4.34290019134030   -1.04411985745660
C         2.46223702597548    2.55993249837514   -0.29303178888402
C         3.75888510863101    2.50519481729190    0.49823879030499
C         4.77689643194489    2.86494919956590    1.22918314772253
C         1.61863164049522    2.51785300602190   -3.71940560771582
C         0.51402053897115    2.84413710319898   -4.33048482679922
C         3.26520356048774   -0.27116009615181    0.21365235804936
C         4.52468206325959   -0.60863242873133    0.96068246781581
O         2.15207584512856   -0.41891115275049    0.74517639586444
H         2.73516779480982   -1.42502960124689   -4.24886934659490
H         4.17634062946652   -0.53608837346837   -3.93906037393138
H         2.55586127484683    0.30200630902501   -3.92254548598226
H         3.48489086230301   -1.79269278132973   -1.92335089916203
H         1.84306061035693   -1.06926017445878   -2.02160913335666
H         4.88518698396223    1.34849328938800   -0.96301831175862
H         1.34609674410362    1.22400652498271   -1.53407324874995
H         3.59551429706026    2.07208380654313   -3.23446207349219
H         2.86349459167809    4.54391019274693   -2.91379956602517
H         2.90342168054141    4.70979023340406   -0.32879456025741
H         0.36307720233568    3.64421329545937   -1.72533998951515
H         0.76446663008895    5.31164387888469   -1.54753238870933
H         0.41738956005035    4.38509199958793   -0.04206533216341
H         1.66976947924836    2.29716413535967    0.41570081139706
H         5.62173054419542    2.88357097271281    1.87891215208634
H        -0.30829096489110    3.02296793892304   -4.98438474576612
H         4.48560063463492    0.02548044867410    1.84467822615791
H         5.43467805320602   -0.49213106263370    0.36341663946855
H         4.45618917543297   -1.67430158403759    1.19636942876712
