36
 energy: -50.493054573345 gnorm: 0.313136922378 xtb: 6.4.1 (79825abcba525fcdf90b791dcacef51065a7a4e7)
C         1.60623092096017   -1.35244389052090   -2.88240542610471
C         2.22152756274814   -0.84960849261834   -1.58471194182756
C         3.16896952020034    0.40647143114449   -1.68833639745431
O         4.05351374368889    0.34353856902546   -2.82002520869780
C         2.44738778072527    1.80520088006697   -1.53909814283916
C         3.43652287219251    3.03093411573859   -1.75093372065549
N         2.65410630919539    4.13154110237816   -1.17782404595984
C         1.44738593633421    3.67247443130278   -0.47406778802536
C         0.22396954624323    3.98986810661125   -1.33605579828262
C         1.74742404044610    2.18474679891698   -0.22391487653953
C         2.75663150225587    2.17019279639467    0.91261057483485
C         3.34084116532626    1.95262516888140    2.05778014272967
C         3.84130871369171    3.23655569077765   -3.20154517636053
C         3.81786558979312    3.13674930508516   -4.50136591112767
C         4.08967465171302    0.06112157669836   -0.47304774462803
C         5.55992038156740    0.32050710046498   -0.64429122932723
O         3.59834322224289   -0.38602138547790    0.57674180687396
H         1.04050131230551   -2.28423543220573   -2.71235983210538
H         2.42552673539679   -1.50769595983243   -3.59153855431887
H         0.90533286377640   -0.60186471123885   -3.23857684255293
H         2.83046150564280   -1.66793931959630   -1.17063432256992
H         1.41284279925881   -0.57670827529621   -0.89521095756261
H         3.50307125030393    0.55126996612505   -3.59410368252915
H         1.64932602513729    1.89621991828276   -2.29416307064091
H         4.39923198685759    3.11325182690418   -1.24779950781991
H         2.33011694219269    4.81693490835637   -1.85769609234503
H         1.36696827047485    4.21718518418270    0.47420936359779
H         0.17666930774894    3.24679380617680   -2.13885093734993
H         0.20660724956714    5.02235496480094   -1.70297657244543
H        -0.69224040702753    3.97916035974296   -0.73439732240716
H         0.94016863215786    1.52915483399073    0.11943888217852
H         3.99865924759791    2.04336674307760    2.89161500301672
H         4.06502957433056    3.40739020811689   -5.50207828982231
H         5.63650807421570    1.35056175527971   -0.98808875290889
H         5.88914970548048   -0.34327438914521   -1.45014105237043
H         6.07761972704992    0.05051035620077    0.28035979495798
