36
 energy: -50.522148398319 gnorm: 0.301621422377 xtb: 6.4.1 (79825abcba525fcdf90b791dcacef51065a7a4e7)
C         2.97411668736544   -0.57596334751628   -3.66017194002400
C         2.91119467054756   -0.83389936204252   -2.16185568644876
C         3.35433031426825    0.36514896485790   -1.23879828642252
O         4.68475675428153    0.76326542591480   -1.61104466033543
C         2.36578958609664    1.59224663622895   -1.36691884021165
C         2.72196969317935    2.53287949980546   -2.59737812306965
N         2.92308747259560    3.87751185021569   -2.04648649605548
C         2.18978625042769    3.97478056587509   -0.77566107760365
C         0.69302585238645    4.22650537107809   -0.96763156053891
C         2.40766749164216    2.57220300596273   -0.18300874766415
C         3.78010454741369    2.55900074926298    0.47017100587374
C         4.95517287153166    2.60252263413619    1.03352718136157
C         1.68207989141748    2.43145283595414   -3.70134697245733
C         1.04976994218565    2.80103881883948   -4.78006619334575
C         3.30842453850890   -0.08618078844193    0.25722479238449
C         4.45152230428959   -0.84387865745914    0.87159365710915
O         2.23373598842398   -0.04114322058052    0.87884978540082
H         2.90801889954833   -1.46027876915714   -4.31653943121376
H         3.89644178097522   -0.05565459015028   -3.93732504868369
H         2.09165873419898   -0.00982851704637   -3.94695510121555
H         3.61441863438416   -1.64537395400497   -1.91913937720581
H         1.95401669125275   -1.18143176581806   -1.75333552316043
H         4.95213429551352    1.55618965688023   -1.11595157161808
H         1.34926290891353    1.20006724074530   -1.53478457473442
H         3.69433513074153    2.26229740493066   -3.00728039223399
H         2.49592295255817    4.58165356430966   -2.64538105905211
H         2.62436784130247    4.73793702938243   -0.11905053182624
H         0.28754156124412    3.53021385266745   -1.70900688618903
H         0.48917021750321    5.25611003222977   -1.28277999745223
H         0.18214293194984    4.16429337126414    0.00018896190974
H         1.65261105397197    2.34983975235457    0.57843610884439
H         5.96514980006942    2.47210014448856    1.34844905491109
H         0.34094934839747    2.84113295408676   -5.57487913748368
H         5.43042482015702   -0.47853352694410    0.56606494638040
H         4.40728699264993   -1.85998140894820    0.46666133991117
H         4.40158590720922   -0.84327852051944    1.96402047867431
