36
 energy: -50.494159988294 gnorm: 0.299928705566 xtb: 6.4.1 (79825abcba525fcdf90b791dcacef51065a7a4e7)
C         1.40706876217946   -1.17346800528085   -2.92235633523047
C         2.15638039103540   -0.86439007399444   -1.63455018066064
C         3.22678091463678    0.29261480843385   -1.67582357990788
O         3.90094892988215    0.04209241781967   -2.92074711329593
C         2.54082859696330    1.71695907433497   -1.66537626412347
C         3.41385460023153    3.02973758285539   -1.86568273551469
N         2.39639950917028    4.06795721136805   -1.66857550902808
C         1.52322492008641    3.70282798004046   -0.54321516161941
C         0.02192390941147    3.96729686936896   -0.67229347227218
C         1.87628696303892    2.21558880763119   -0.37175183822790
C         2.67779945620192    2.02529942198320    0.90565540737300
C         3.32211582076440    2.44827830308150    1.95731848268401
C         4.11379077726380    3.20368504877936   -3.20368012761062
C         4.30828002145983    3.15975082437553   -4.49220197571206
C         4.10289850770721    0.01282844188607   -0.41169206762855
C         5.50618485891655    0.54042845690100   -0.51490692577070
O         3.73295866829037   -0.80023647789841    0.45171481145230
H         0.65137095879154   -1.92741011395674   -2.64362151405850
H         2.09624067225345   -1.62796875028160   -3.64116770239731
H         0.91070086986453   -0.31422750405533   -3.36598900313728
H         2.72614707353778   -1.77307324158141   -1.38638290795599
H         1.35417853163361   -0.69477292688407   -0.90546899171184
H         4.27845530147319    0.91708508183614   -3.11365521297328
H         1.81416236157341    1.70296624041252   -2.49427339422219
H         4.14909546022728    3.06977832966232   -1.06284607620287
H         1.94780320696062    4.19577809763101   -2.57377325419641
H         1.85002155782175    4.33402055413803    0.29177361073982
H        -0.35009691051630    3.63453328755680   -1.64684242942853
H        -0.13784451133762    5.04699776944691   -0.57389919589686
H        -0.65127324804135    3.49440688154547    0.05208826267280
H         0.90979871942151    1.72276558516855   -0.22215347258925
H         3.85926359495097    2.41302297649607    2.87735574503946
H         4.69748759418517    3.51811858536400   -5.41732456789620
H         5.63027776882912    1.22237981302557   -1.35432237339468
H         6.25236762137732   -0.25468488475947   -0.61184918650178
H         5.67099983183452    1.11040776763600    0.40370614734900
