36
 energy: -50.516072164622 gnorm: 0.305502181681 xtb: 6.4.1 (79825abcba525fcdf90b791dcacef51065a7a4e7)
C         3.94695983301117   -0.60174449813194   -3.76575750591232
C         3.09829179130776   -0.68248556464427   -2.50532694382313
C         3.32522525343249    0.38563393066613   -1.36789870276668
O         4.69958666275790    0.77746722253782   -1.52504822505387
C         2.30433237962367    1.59255540033329   -1.39058453655076
C         2.71989074825028    2.72640408454006   -2.42372677819573
N         2.84883891104335    3.95366882281790   -1.63053088045311
C         1.93696795649774    3.83316966504222   -0.48329051623254
C         0.45720401038635    4.05200061997257   -0.80410419117264
C         2.26595604925797    2.38715116130816   -0.07496445340481
C         3.62936833110830    2.53277527725568    0.58100976745796
C         4.90236954092703    2.49549298806316    0.86052343084725
C         1.67980888332508    2.91684811267514   -3.51568196771356
C         0.95462147850464    3.00334083425671   -4.59580558733117
C         3.09783203477612   -0.33247634485071    0.00195563287805
C         4.34787597430637   -0.85558346657688    0.65155301434321
O         1.94910489974195   -0.44865584143297    0.46057288529583
H         3.74982210686403   -1.54730493875745   -4.29891146263972
H         5.00021158296502   -0.54501115521602   -3.47307900066193
H         3.71239739234460    0.28126128424286   -4.35462635060775
H         3.26416091566726   -1.69314659769897   -2.10162176611721
H         2.03362412713850   -0.54445399770215   -2.73179379418459
H         4.84966195776408    1.51767398619946   -0.91275082486451
H         1.28905242789232    1.21515219229733   -1.59572717381330
H         3.69405301383099    2.55990848935951   -2.88200198644888
H         2.56399706847152    4.80296480463063   -2.11480480658825
H         2.33727088021374    4.57369908721395    0.21940437248605
H         0.26703889750178    3.75290585828050   -1.84008503896796
H         0.32048018185413    5.13913656074724   -0.78401789505393
H        -0.22451931433067    3.62399209677268   -0.06005428246576
H         1.61604296353316    1.92140231226587    0.67339703310701
H         5.85760245970630    2.82955682455416    1.19544231194282
H         0.27061101935726    3.26203896841024   -5.37102603028007
H         4.17272300011788   -1.48384079362149    1.52315450620246
H         4.84976238776585    0.05995713973016    0.98062318187086
H         4.98783595693318   -1.40794917640200   -0.04215709010920
