36
 energy: -50.517948069736 gnorm: 0.295560394543 xtb: 6.4.1 (79825abcba525fcdf90b791dcacef51065a7a4e7)
C         3.05098641530505   -0.39319198625413   -3.64332875647762
C         3.00758749227283   -0.75991283136425   -2.16716002065482
C         3.36845729703655    0.40386258939815   -1.16639988829678
O         4.74293595931670    0.71032545995570   -1.45620589896951
C         2.42970141547487    1.66181845758335   -1.35529347448648
C         2.84567174236391    2.54108513962001   -2.61209230964862
N         2.96628382367832    3.88961372841855   -2.04738929843841
C         2.08635071477913    3.97574806843963   -0.87244771309409
C         0.62438954351842    4.27467305272604   -1.20982452404781
C         2.44750943932382    2.65127926759046   -0.17870452958912
C         3.77090416116194    2.77475791695414    0.55871056485705
C         4.92812879695901    2.50966301305280    1.09778918267113
C         1.73005678936560    2.39823525250602   -3.63454162724348
C         0.78058157909746    2.70232155224921   -4.47482324324173
C         3.25157967162755   -0.30122075029298    0.22395548486973
C         4.47259079037266   -1.01161476619401    0.73649803744802
O         2.13130713905212   -0.32723068754896    0.76034567660574
H         2.72347058411990   -1.23924641302860   -4.27112351573147
H         4.06862336511144   -0.05602709198842   -3.86458314506888
H         2.31231362244594    0.38963207439155   -3.79509919512304
H         3.74921859793540   -1.53581015687475   -1.92242993576748
H         2.02924920257544   -1.15500252194480   -1.86613591090260
H         4.95939438423059    1.40923610716012   -0.81588846551806
H         1.38783677500105    1.33198962735450   -1.50034895241257
H         3.80152571638975    2.24544966002786   -3.04298896875142
H         3.07886801646461    4.66911668687890   -2.69288113300846
H         2.33786960976802    4.84579537609900   -0.25425495494178
H         0.05676163778482    3.43810128714410   -1.63032779455737
H         0.52939374796658    5.01164124910335   -2.01531511356242
H         0.10616192447491    4.68045076032511   -0.33327855294031
H         1.66395117726382    2.40054756004754    0.54415367243863
H         5.83918591947043    2.77181561536516    1.58511880618001
H        -0.09452851016762    2.57025738725433   -5.06854303443695
H         4.23179006820331   -1.80051206708233    1.44694230495340
H         5.08501410766757   -0.26458894939913    1.25155323664692
H         5.04858474076177   -1.31092523791082   -0.14357842625702
