36
 energy: -50.517272612599 gnorm: 0.313628049915 xtb: 6.4.1 (79825abcba525fcdf90b791dcacef51065a7a4e7)
C         3.06048574798384   -0.45673907573273   -3.68811965838472
C         2.79868608200375   -0.73893548317256   -2.21595529888821
C         3.34905345962060    0.36994230386454   -1.23942732562220
O         4.74058753834449    0.59248861259869   -1.52439159197427
C         2.41537825219632    1.64095723264915   -1.34973598119305
C         2.87348440825480    2.63786734301762   -2.49951573152836
N         2.89593933107473    3.95181152964912   -1.84758587245092
C         2.02692642641716    3.95313430268650   -0.66141390170729
C         0.54664401198103    4.24866346374625   -0.91028376511369
C         2.33617653797429    2.54998343624239   -0.11235576077952
C         3.74451791491488    2.54596154477308    0.45944838273048
C         4.96330402075557    2.72132589026895    0.88823468464729
C         1.88483829308864    2.57904154572382   -3.65256548636585
C         1.11558034054218    2.64331627654346   -4.70335364787698
C         3.21691235912171   -0.29993301416403    0.16687873418124
C         4.52181658245199   -0.75754814110022    0.75513125913529
O         2.10318335634818   -0.47352337265236    0.68925368144803
H         2.86310084224228   -1.36790256209634   -4.27805293611815
H         4.11584909418047   -0.26170612875090   -3.90350068558695
H         2.49288408699454    0.38758393611293   -4.07078436081449
H         3.32916625696853   -1.65203598322708   -1.90488548214523
H         1.71593050596974   -0.81518309560713   -2.05569348459923
H         4.94666538780672    1.51184563954153   -1.28428467790664
H         1.49567081838933    1.06875497389394   -1.55475520480744
H         3.82950479715137    2.31808470958079   -2.91242389654670
H         2.62122260394208    4.67905231485984   -2.50531783347710
H         2.49612672001242    4.68154033263437    0.01065908200619
H         0.25144324167104    3.58149247220943   -1.72674940137847
H         0.34656657664042    5.26213124944092   -1.27608901225216
H        -0.00430725392903    4.02172411236022    0.00977030172578
H         1.55688086762358    2.25035414350433    0.59635747879785
H         5.96768647329702    2.88600345405279    1.20499390814516
H         0.41470125781224    2.54762828321103   -5.50045720869387
H         4.35796735205503   -1.39417911591818    1.62284632026274
H         5.08944988485850    0.08134625178240    1.17039066694505
H         5.21829811401312   -1.17509506598018    0.02269805071787
