36
 energy: -50.507268095384 gnorm: 0.294199146318 xtb: 6.4.1 (79825abcba525fcdf90b791dcacef51065a7a4e7)
C         3.53510681014631   -0.24809011946790   -3.88458057265044
C         3.21507925430135   -0.67285221091419   -2.45888729970134
C         3.44798308570831    0.43574048880489   -1.36211972481684
O         4.80083135868431    0.91470445801527   -1.44868567926405
C         2.36101994696729    1.58366524309323   -1.37539579153041
C         2.64100926593715    2.64984151927201   -2.52019211385459
N         2.93973801770720    3.87357341930456   -1.76838929852536
C         2.06197088219849    3.85427258064923   -0.58883791136109
C         0.58207025089604    4.05070366950595   -0.92323093525260
C         2.27485697609121    2.41635110265286   -0.08585262543279
C         3.59834246416452    2.43522096987500    0.66143026492430
C         4.43020838693081    2.51605868287118    1.66218712898340
C         1.55335479228281    2.87512429167753   -3.55781476880995
C         0.84572021956724    3.27837306965425   -4.57599380111714
C         3.22818690981343   -0.36716631789519   -0.03889590704805
C         4.47329025131338   -0.73011878396753    0.72018963382161
O         2.10866257933194   -0.80149457594123    0.27957817438979
H         3.32153483169843   -1.05314232258482   -4.60809901199738
H         4.60494352903928   -0.01686722277408   -3.87029774406143
H         2.96864373078316    0.62687309606417   -4.19287299865440
H         3.92157983198948   -1.48438682541131   -2.22608980835762
H         2.16608703983135   -0.99341787424225   -2.43223820620275
H         5.40613749039672    0.29828811720700   -1.89474860300488
H         1.41740390568143    1.06503079377416   -1.61186385654919
H         3.59387879627370    2.33483857222888   -2.94391593486024
H         2.81483506837287    4.74001143139263   -2.28862405274880
H         2.48717307157423    4.53383176619118    0.15936578943420
H         0.29743329341333    3.29207438103085   -1.65966842158922
H         0.45275867233926    5.04336794762181   -1.36916541999301
H        -0.12609848588093    3.94422554888177   -0.09334678308156
H         1.53517937181069    2.05451266409862    0.63616116570591
H         5.38372684970177    2.60575596642165    2.13015740569397
H        -0.00896499037185    3.13193619609152   -5.19553493662598
H         5.16322824479438    0.11193827407134    0.72087871317573
H         4.92493523994941   -1.67787908584970    0.41009455236121
H         4.18258119094926   -0.97000729224037    1.74675288905541
