36
 energy: -50.518470515563 gnorm: 0.305807989772 xtb: 6.4.1 (79825abcba525fcdf90b791dcacef51065a7a4e7)
C         3.02036367794750   -0.55132531149815   -3.63141806850752
C         2.80538745240039   -0.86903478804105   -2.15890739532478
C         3.28836195638422    0.30843583701837   -1.22809076386962
O         4.67780489930720    0.54108590015298   -1.51518105872976
C         2.44733420166968    1.63557557104591   -1.40350100653753
C         2.78366815459901    2.57767738467275   -2.63841318049460
N         2.95199949588912    3.91344945542261   -2.05588111895985
C         2.23203068398624    3.93240287583028   -0.77390030840864
C         0.72417176485126    4.18959592784726   -0.80078793449719
C         2.49788745990385    2.54513643614136   -0.16501210756049
C         3.91275296852620    2.54040364321973    0.39044698638043
C         5.02979264285517    2.96085816905244    0.91531868226942
C         1.75525155617213    2.49075597829036   -3.75430263765134
C         1.00929965728919    2.72312893671648   -4.79814330181246
C         3.12327187665863   -0.19564729124082    0.24246572749159
C         4.35777321619500   -0.65904739942701    0.96322535721839
O         1.99798513935649   -0.35449647635976    0.74436032014233
H         2.86429036930282   -1.44123626099169   -4.26458518311130
H         4.09239063044205   -0.33010862390639   -3.63774445331295
H         2.43478269218202    0.26398428230756   -4.04837183133532
H         3.47515528007767   -1.71773188181105   -1.95142134398312
H         1.77206617284410   -1.13649304809741   -1.90480035715429
H         4.95616302946055    1.47234960277740   -1.53970480624719
H         1.39743990223481    1.30168762453689   -1.44288203693251
H         3.71506741616976    2.26876418562286   -3.11148517109476
H         2.57474032380323    4.59844474971363   -2.70812090201090
H         2.72676650201802    4.74554149450090   -0.22942954112907
H         0.21673267871912    3.32273306177438   -1.23659879713480
H         0.43616551995141    5.08853081097978   -1.35750140870216
H         0.31294784944250    4.37649828678172    0.19796661647262
H         1.77314064862573    2.25295081526170    0.60227111065975
H         6.05389092494510    2.95009993647038    1.21086259639267
H         0.43342186229466    2.86713555648917   -5.68323573470099
H         5.32051369396240   -0.26431456016588    0.64323825117879
H         4.35792219486628   -1.74398323528728    0.81725975619721
H         4.26581692532715   -0.37518123776125    2.01529684271853
