36
 energy: -50.500888799359 gnorm: 0.318045565604 xtb: 6.4.1 (79825abcba525fcdf90b791dcacef51065a7a4e7)
C         1.50277791511783   -0.85454863738209   -2.86973169138178
C         2.45613961854185   -0.92271436462743   -1.68571451089856
C         3.35914519792012    0.36078916693592   -1.53300332960919
O         4.35167115465904    0.36807476004639   -2.57316569814242
C         2.46864508543581    1.66674174408734   -1.56289925108553
C         3.35214232191498    2.89196397757358   -2.05680977049966
N         3.04308286074413    3.94943427431373   -1.08819998563665
C         1.68590113807263    3.65882694242317   -0.60261344598098
C         0.56879433893698    4.03485698043820   -1.57789983831402
C         1.74235777598819    2.15223322714432   -0.29778418996764
C         2.57555847015873    1.99029705844527    0.96314993796506
C         3.30617064482144    1.86404636774430    2.03567804151322
C         3.14214262554300    3.24750413503882   -3.51964833875400
C         2.81774864233838    3.45785475445711   -4.76486556800804
C         4.10013513335805    0.05773112660341   -0.19025215894392
C         5.54602165918876    0.45503859049310   -0.09132483928701
O         3.46515590507234   -0.59591584232198    0.65411063349722
H         1.22452196561043   -1.85167494207570   -3.25119431448860
H         2.01847097777633   -0.39224528845406   -3.71740787441474
H         0.55867691162338   -0.37723676635601   -2.62006802997811
H         3.19991328499997   -1.73388475660527   -1.65870522714486
H         1.86677518584165   -0.99343643267358   -0.76294414651060
H         3.91823566851052    0.06184054611365   -3.38783805044168
H         1.63577222713790    1.42165482887836   -2.24228521174594
H         4.40433422764677    2.61296690874289   -2.01459711624801
H         3.04812115321866    4.88676006742342   -1.48613810859745
H         1.64080759805526    4.21948873843046    0.33867890395097
H         0.84162944124075    3.59098097886250   -2.54092209507163
H         0.46459630185409    5.11409531656245   -1.73711289814424
H        -0.46192884058321    3.79639351043313   -1.29103200389862
H         0.79948818100115    1.64537640527391   -0.06659810698410
H         3.90350664893277    1.52227766562610    2.84969467383458
H         2.51843938776038    3.73682813846648   -5.74891312455732
H         5.74186269447251    1.42071596984540   -0.55412985955543
H         6.10028559062744   -0.26054722577901   -0.70705220066667
H         5.96495944266911    0.31469711142262    0.90901798689857
