36
 energy: -50.515724336364 gnorm: 0.307746119283 xtb: 6.4.1 (79825abcba525fcdf90b791dcacef51065a7a4e7)
C         2.57032533710845   -0.68089353506416   -3.57455923102511
C         2.75540582491350   -0.86303316317580   -2.07522200210093
C         3.32475715913895    0.30220725025085   -1.17846402166062
O         4.66137703155041    0.53118166958629   -1.65607956546670
C         2.46802748008182    1.61645610312572   -1.37381123945912
C         2.77764813307404    2.43353965737490   -2.70128778161564
N         3.06714047299710    3.80456127770602   -2.26716802325603
C         2.42834195583140    4.01099750829402   -0.95892123899828
C         0.95623306544407    4.42526719165025   -1.00117950069419
C         2.63065279822523    2.65838646906559   -0.25504162126336
C         3.99856474278236    2.55495975011522    0.39957384195225
C         5.14548946304147    2.93618074192746    0.88874064097861
C         1.67608115266272    2.27548663302185   -3.73664991987174
C         0.65322834651985    2.15048437820871   -4.53551870905147
C         3.18777416945232   -0.04084131109034    0.34056338372994
C         4.43139347889168   -0.48801293565562    1.05587884366314
O         2.09724927279675    0.00707687052308    0.93374192180825
H         2.28877941815099   -1.66893028329616   -3.97669881966418
H         3.47914403504948   -0.27776857978508   -4.03255210292622
H         1.74985144118586    0.00487106662911   -3.76958425975661
H         3.44659705601594   -1.71738338780007   -2.00990328833749
H         1.80344233095091   -1.21996436764666   -1.66264134760039
H         5.05362151121647    1.28340091043186   -1.18105616278699
H         1.42915593998570    1.24788968287262   -1.38846659965516
H         3.56989570480619    1.93875144227786   -3.26187450636702
H         2.86732789545159    4.49437276861388   -2.98910625131309
H         2.92782931812829    4.85948365016257   -0.47623087076387
H         0.44606852830265    3.61356614363045   -1.53009378022545
H         0.72604097398404    5.37300226444524   -1.50095069035307
H         0.48001710895892    4.49482836601397   -0.01633034679235
H         1.88684127356404    2.48001679760881    0.52872019879075
H         6.01753941297372    3.08595156259825    1.48316204757771
H        -0.00604301331441    2.22332732188279   -5.36967513679285
H         4.90737061576636    0.34054650657901    1.57742463235762
H         5.18731742150487   -0.79737065802185    0.32699714168736
H         4.13432652906888   -1.27015254144398    1.76007997285370
