36
 energy: -50.516600704288 gnorm: 0.310322778825 xtb: 6.4.1 (79825abcba525fcdf90b791dcacef51065a7a4e7)
C         3.60962229998385    0.00931670967015   -3.85383368301955
C         3.23738009904439   -0.65636361926968   -2.53711533198145
C         3.43464878151676    0.34563973324798   -1.33578465566233
O         4.77774970039143    0.85738893553622   -1.37171862315910
C         2.43974467032602    1.57362506710887   -1.37596104040451
C         2.79512610428494    2.65876117257452   -2.48134247689929
N         2.74961873019017    3.93166469525068   -1.75359817476295
C         1.96953414387146    3.78039930397746   -0.51635287396988
C         0.51542477401722    4.09072332425043   -0.87659536902392
C         2.37665012777377    2.36855772613246   -0.06149823812702
C         3.69231256884415    2.55901123720037    0.67549656005553
C         4.87389390660300    2.80722473443954    1.16774189796857
C         1.79456497277111    2.60034193573973   -3.62408914202030
C         0.89207173106061    2.67042413688039   -4.56251292650548
C         3.06715903615005   -0.43195572450144   -0.03033932607056
C         4.24808630496436   -1.03834466309741    0.67388428579850
O         1.90825657627910   -0.58836622613038    0.38904393440053
H         3.96758792048090   -0.76320454152078   -4.55545502142646
H         4.43363156923940    0.72989004744489   -3.85502352108091
H         2.71275722511933    0.47239242062374   -4.25716876928946
H         3.93241648195911   -1.47543737646323   -2.29634828532516
H         2.18487720353278   -0.96533178882273   -2.51194580341381
H         4.87652504786825    1.69528113367692   -0.88848281821671
H         1.41571564762347    1.17728452883641   -1.47388341597427
H         3.79772383645960    2.47554102223918   -2.86599454978710
H         2.59473361011797    4.75992800068697   -2.32539381819298
H         2.27436426405906    4.56468237788047    0.18677229554177
H         0.17342910073043    3.42149022735971   -1.67286340136850
H         0.46075892415208    5.12228978105754   -1.24244192506140
H        -0.07979552965652    4.03195164628939    0.04199427350185
H         1.65521728325098    1.90806626634827    0.62175586244163
H         5.71109215993658    2.89112783412884    1.82218712559487
H         0.08527748880666    2.60584153482259   -5.25581942353209
H         5.11342050444788   -0.37876205115595    0.70884843789196
H         4.57987395733050   -1.83493427209470    0.00027186383295
H         4.08110994972236   -1.45648276366160    1.67046332672241
