36
 energy: -50.518321867421 gnorm: 0.299078482554 xtb: 6.4.1 (79825abcba525fcdf90b791dcacef51065a7a4e7)
C         2.99698433494258   -0.63752027783056   -3.61962103212936
C         3.11990077595921   -0.85999329166238   -2.11934136520157
C         3.41032033240735    0.42129486024996   -1.24751671363274
O         4.70893490423150    0.93364505926353   -1.59131325711619
C         2.32492085995845    1.55719660892529   -1.42367447016981
C         2.77344298343406    2.48212399426570   -2.63570654453106
N         3.01364907326204    3.81353190284012   -2.06859092715825
C         2.21808245959303    3.92944901339703   -0.83740202694275
C         0.78594127930624    4.42452403523945   -1.04807258721104
C         2.22416920509761    2.51749010754256   -0.22726448280539
C         3.45411324649967    2.41037769749948    0.65939563421339
C         4.68283565756975    2.41350129811701    1.09560818878204
C         1.63979602269485    2.44786933631980   -3.64767324397449
C         0.85119262422203    2.97898516869730   -4.53989827042687
C         3.37270930005410   -0.11141671877058    0.22173300590705
C         4.63316204238108   -0.70856292826437    0.78111029972530
O         2.22569156913015   -0.27482159705127    0.67011974782346
H         2.79582566853377   -1.56761575831451   -4.17788490995709
H         4.01632441361122   -0.34682632885247   -3.89286353267091
H         2.25566610792143    0.09718650240845   -3.92316427297653
H         3.85393093794735   -1.63097915424658   -1.83879425457353
H         2.11231068307974   -1.10569019138153   -1.76121788178335
H         4.97647255373550    1.67603470580287   -1.02331856524485
H         1.32695642997409    1.10986444246637   -1.56249447050419
H         3.71812064510444    2.19455016353310   -3.09572229340613
H         2.80106663886271    4.51125241568819   -2.77919248161575
H         2.72764922920995    4.67301749792070   -0.21301915616418
H         0.27106477342600    3.66108246356537   -1.64047102734706
H         0.71124367135716    5.42365255924961   -1.49205892804971
H         0.27247137701816    4.48952112008078   -0.08180539274945
H         1.34815182416392    2.33316271864771    0.40358484428108
H         5.48041376723297    2.19063196765516    1.76675470097349
H         0.05124770529613    3.02633984862577   -5.24247030278452
H         4.37987694135787   -1.76334729074909    0.87249743319629
H         4.84469038706493   -0.41259937735245    1.81360876298581
H         5.48541661939092   -0.50678668570571    0.12625241545979
