36
 energy: -50.517847511333 gnorm: 0.307959351705 xtb: 6.4.1 (79825abcba525fcdf90b791dcacef51065a7a4e7)
C         2.87884919807943   -0.44140488414531   -3.67651607446223
C         2.94957649236065   -0.82665583932415   -2.20613478897343
C         3.40534912002045    0.34368486714088   -1.25287983850445
O         4.78775699412768    0.60174968527041   -1.55196109823462
C         2.46714714634345    1.60515476162370   -1.41981424746195
C         2.84768155775511    2.52571971074361   -2.65813498152547
N         3.03979537565733    3.88361441722015   -2.13738518654222
C         2.29825293068378    3.98902561309521   -0.87200287025070
C         0.81366495304783    4.33748377696212   -0.99482456302140
C         2.47356719809986    2.59583526214541   -0.24413474971702
C         3.83729841735151    2.52576514850120    0.42349457977531
C         4.88468708330667    2.86615386901981    1.12146478888676
C         1.67444156968010    2.36948321926708   -3.61181390800500
C         0.72388327528036    2.57205438594202   -4.48097941566734
C         3.23033219976026   -0.17350424682714    0.21196671651341
C         4.35545315134357   -0.83218354908421    0.95927661075556
O         2.09196503724652   -0.17985189356644    0.70944174202940
H         2.74472891352769   -1.36926419185967   -4.25814295272872
H         3.85847933128452   -0.04299784497438   -3.95903202780931
H         2.21716851704682    0.39980499296931   -3.86633147407788
H         3.70784090030993   -1.60130713942001   -2.01410193869934
H         1.92457549832696   -1.14193539654565   -1.97412413699560
H         4.91596781266148    1.38939099826509   -0.99651541467104
H         1.43609963498771    1.23027018662188   -1.52803924226593
H         3.75440602652725    2.13361423272921   -3.11730064550917
H         2.65993731123561    4.57927197819032   -2.77670371779581
H         2.78188302275762    4.80191423786454   -0.31727737867039
H         0.33922385109313    3.49701759305439   -1.51193093176615
H         0.58478132879248    5.28463971777545   -1.49629173132943
H         0.29747060776548    4.36610103561214   -0.02824673279594
H         1.66567695262001    2.37543397932276    0.46162054624275
H         5.77579170288593    2.85148128206145    1.70623525015359
H        -0.13902313677199    2.42743370684043   -5.08945223875750
H         4.35370370034312   -0.54302368754772    2.00878054451855
H         5.28422577020710   -0.54070831181802    0.45846192240011
H         4.33523044217238   -1.91681756042825    0.82125318134431
