36
 energy: -50.519625701640 gnorm: 0.303561390123 xtb: 6.4.1 (79825abcba525fcdf90b791dcacef51065a7a4e7)
C         3.16173876590011   -0.61460328878934   -3.63234479508716
C         2.88837574746168   -0.79495634573058   -2.14634775328225
C         3.37328702426645    0.38155942837294   -1.21533069807473
O         4.74495295571141    0.70943555511079   -1.49484529777210
C         2.43039178178648    1.64280149097969   -1.35537844381614
C         2.83619973966483    2.63640421808314   -2.52745269033067
N         2.96213707232299    3.96698305782511   -1.92274957819336
C         2.07569166735492    4.00998588081925   -0.75033564057200
C         0.60478951396009    4.20398524220133   -1.12359271510450
C         2.31866442075836    2.60868568980032   -0.16445607290102
C         3.65270098815677    2.58886694963333    0.56379889242795
C         4.90854379427317    2.79202995851426    0.84951483127739
C         1.78974777886099    2.51480530980574   -3.62315219804322
C         0.93546040511605    2.81312377234231   -4.56189818071257
C         3.26233873673266   -0.24568817947100    0.21230436396622
C         4.47390300858626   -1.00145297144838    0.68044886253340
O         2.19972969149162   -0.21881882080679    0.85537632736380
H         2.89320256679248   -1.47128395309693   -4.27358384368781
H         4.22096276095999   -0.42667811481824   -3.83469915285285
H         2.65690404805857    0.29057415710031   -3.95988253031362
H         3.43119725460656   -1.70125608693393   -1.83668381359536
H         1.82466066326515   -0.97328259186907   -1.94493486445217
H         4.89255504061980    1.65250731688601   -1.31000474532850
H         1.39285759704559    1.28808274532375   -1.46942889904849
H         3.77355868981481    2.37978900544581   -3.01962737457134
H         2.85743004744881    4.65453182939859   -2.66657274520048
H         2.53066705434839    4.80034129756570   -0.14144971087262
H         0.25654490621182    3.51921551619246   -1.90378043530043
H         0.45677239967705    5.21252020184643   -1.52597261751768
H         0.01620858716495    4.07436014551129   -0.20799559620099
H         1.61220340939579    2.28270572508984    0.60626036836342
H         5.78045900460032    2.54372513175517    1.41018213629803
H         0.01591997950230    2.76571761881403   -5.09851709616017
H         4.18042247149326   -1.80996537602307    1.34772082001989
H         5.11702093980615   -0.35851391099175    1.28989158926028
H         4.98611942084977   -1.34658338694639   -0.22199765308217
