36
 energy: -50.522818243662 gnorm: 0.310632916898 xtb: 6.4.1 (79825abcba525fcdf90b791dcacef51065a7a4e7)
C         2.87921033784151   -0.61065274594155   -3.55331180696532
C         2.83303770140414   -0.85581502508015   -2.05224374312826
C         3.39479619935595    0.38217632921819   -1.25354111784627
O         4.75536424496233    0.66420945623146   -1.62287902955198
C         2.42392538490124    1.62051792973309   -1.40623784277295
C         2.83940018115905    2.52904273171021   -2.64221837655542
N         3.04883925495241    3.84041517513512   -2.01899796283665
C         2.17309031301768    3.97024539666029   -0.84494641859501
C         0.67510375623467    4.11529257392753   -1.11973236048114
C         2.47713602941881    2.59778907827076   -0.22056458343127
C         3.83935173025681    2.57340648726042    0.45336079139566
C         4.92070256377259    2.58350690282873    1.18180313014183
C         1.71890269232933    2.54645508138661   -3.66914951043044
C         0.79956687880943    2.82984249280296   -4.54923930450496
C         3.24131380316395   -0.13655346187237    0.21317409687208
C         4.52763018752861   -0.71513398103717    0.73169355100161
O         2.16034266086475   -0.11122934576360    0.82494331451794
H         2.49403007542975   -1.50754278456269   -4.06753490836051
H         3.91050184824043   -0.38355779703489   -3.84155534521453
H         2.25531315028863    0.23136542674204   -3.84183038051311
H         3.45001427133567   -1.72787449661254   -1.78620171900747
H         1.80498264683526   -0.92611958375026   -1.67539196199906
H         5.10788791614862    1.46896739070191   -1.20643158110972
H         1.38160051735171    1.30238823697089   -1.57255810514179
H         3.72312281474330    2.17596446297967   -3.17240618805772
H         2.94933744213940    4.70134904632668   -2.55364927721194
H         2.53739820814821    4.79313310803744   -0.21841475823473
H         0.31150102539898    3.34604998942861   -1.80888811911729
H         0.45668712207350    5.06332734905254   -1.62419806956095
H         0.07628059906889    4.00974519384411   -0.20769133697870
H         1.71395371838641    2.34643202105341    0.52356329315152
H         5.88243839279361    2.68586742471277    1.62993895338797
H         0.04340342421820    2.99367679986776   -5.28213556077441
H         4.79820903787139   -0.28455435369850    1.69422317061393
H         5.33423637610843   -0.64653032641980   -0.00524046318077
H         4.38297671527163   -1.75525931190669    1.03682473382061
