36
 energy: -50.522688363097 gnorm: 0.304838461628 xtb: 6.4.1 (79825abcba525fcdf90b791dcacef51065a7a4e7)
C         3.34328141284693   -0.18967024751227   -3.80832341953645
C         3.28108544474813   -0.72068753666212   -2.38368519699216
C         3.45316829108273    0.40810191782979   -1.29632927807539
O         4.79375513974196    0.86932852426458   -1.53548506663601
C         2.44885541137677    1.61535130011847   -1.47881456533654
C         2.87546513276633    2.67087774056327   -2.58766647809772
N         2.82496919711137    3.95885140735101   -1.88728080126320
C         2.00004670442579    3.85244648875434   -0.67469266318224
C         0.50020353427803    4.00930215351460   -0.93232899725594
C         2.35344196780106    2.43825804569158   -0.18365739389720
C         3.66391895418314    2.37938067507799    0.58418704177848
C         4.62734115512756    2.44081678643849    1.46059627623005
C         1.80398843252057    2.58993919744450   -3.66274416084661
C         0.89422927713759    2.96675184678161   -4.51737585282682
C         3.21153285189189   -0.22084283608957    0.11432011186099
C         4.34507166398082   -1.03708764197446    0.66845170099959
O         2.10487405932058   -0.21363661896241    0.67881621813955
H         3.28755532801402   -1.01647860724660   -4.53666640783662
H         4.23848462855804    0.42639305547701   -3.93983705381807
H         2.53161384802004    0.49060740980033   -4.05307500587723
H         4.15068441860592   -1.37861230881950   -2.23249399086777
H         2.39380922391199   -1.34263891142327   -2.21113212923874
H         4.97268067981576    1.53209694719082   -0.84696460785193
H         1.43143572351898    1.27040338092058   -1.72615677933125
H         3.87262710632579    2.47755066275665   -2.98139443903756
H         2.48902900988911    4.67316201738547   -2.53060367284402
H         2.35924955465066    4.65507936873385   -0.01958952781403
H         0.14105529600734    3.19667532559829   -1.57227191672064
H         0.32316699629960    4.96525172074617   -1.43807587154928
H        -0.12983075510387    3.95511842886058   -0.03696920003169
H         1.69752567608411    1.97282289216703    0.55964459205719
H         5.48808670838374    2.56570128013423    2.07684311127733
H         0.06074116201624    3.00612071384985   -5.18033093632648
H         4.46091688059369   -1.91488176891867    0.03510160186031
H         4.20448894619688   -1.24930652050960    1.73315418708633
H         5.31723918417650   -0.54163902815008    0.59557274727870
