36
 energy: -50.517875453833 gnorm: 0.305186611901 xtb: 6.4.1 (79825abcba525fcdf90b791dcacef51065a7a4e7)
C         3.01719329473808   -0.66235144361673   -3.61938025084647
C         2.93270707720049   -0.80851311318611   -2.10711684581104
C         3.31490387939950    0.41478917281785   -1.18865173263091
O         4.66418854695968    0.75176853771211   -1.55330825990568
C         2.36698280700905    1.67238030053166   -1.32759966953466
C         2.67439923669698    2.36049274557972   -2.72677116546276
N         3.02800625231490    3.71377496034723   -2.28455469100949
C         2.36300212610750    4.01810263066793   -1.00888102919318
C         0.89839520292584    4.45683001016837   -1.06323693017293
C         2.53606230202653    2.71490655711968   -0.21034300231566
C         3.89785045898986    2.59849453594660    0.45477564118934
C         4.83966614569000    2.57306496042870    1.35610046981611
C         1.46712737633998    2.26288967250147   -3.64512492547820
C         0.58901788468841    2.36437917509957   -4.60359682932157
C         3.21633964659317   -0.06598949134877    0.29560832076806
C         4.51652105754699   -0.58182545503246    0.84485254962090
O         2.13549711478084    0.01431640074371    0.90284128530519
H         2.88391518103237   -1.68685977613330   -4.00644690211573
H         4.00807141823506   -0.25192706737851   -3.83831175446637
H         2.18370863078158   -0.08172263869332   -4.00623781005957
H         3.65714478742575   -1.62770718032429   -1.98047860804434
H         1.94792442844683   -1.20635627614842   -1.83183313011117
H         4.80448383679755    1.69522984855436   -1.36480165632654
H         1.34427964240668    1.26304490775179   -1.37041131303025
H         3.52553426775271    1.92741121945774   -3.25092630662589
H         2.87960525252981    4.43369635421869   -2.98928875131097
H         2.95718373799636    4.81172419646538   -0.54035208297298
H         0.31885179682891    3.64150463168546   -1.50849048446927
H         0.82467405734545    5.35269512065655   -1.69009601267679
H         0.53450063218466    4.68004301112372   -0.05363059646489
H         1.79668140905364    2.51342543878528    0.57200932113853
H         5.70057845424515    2.34997532181217    1.94372298469026
H        -0.34325839705780    2.35307187799796   -5.11982821782683
H         4.79647962990914   -0.19301519338105    1.82236202279027
H         5.26905836724954   -0.49699133867686    0.05435744169188
H         4.40077738270621   -1.66163883265979    0.97329257664090
