36
 energy: -50.513749730372 gnorm: 0.311147431529 xtb: 6.4.1 (79825abcba525fcdf90b791dcacef51065a7a4e7)
C         3.21603890648024   -0.48110343891121   -3.69463242442668
C         2.98783746986980   -0.84554877174820   -2.23499360094470
C         3.38078910713176    0.36579979368337   -1.30529216517893
O         4.74738814276402    0.71660551329529   -1.58177188420394
C         2.46219230085373    1.64473599145957   -1.44635416224625
C         2.87129921988251    2.57256630489712   -2.67005631737653
N         2.85324107717929    3.89613886674306   -2.03776231857280
C         2.14905159056490    3.89768603687109   -0.74690837577710
C         0.65153635774611    4.16175728290338   -0.91490905068907
C         2.54278983684038    2.52082262061317   -0.18552602139556
C         3.82509186004593    2.64397833718525    0.62127984990134
C         4.93364615066228    2.59902658015513    1.30621532465485
C         1.77511752451801    2.44377127699167   -3.71514146203517
C         0.77882417564115    2.71821697244721   -4.51020370747000
C         3.15199150520456   -0.20793686980816    0.13080284627072
C         4.36238418442620   -0.71747555980533    0.86124625811789
O         1.98587028914754   -0.31127211492948    0.54659684163824
H         3.24663984861216   -1.45729847178177   -4.20776770515399
H         4.19743106142561   -0.01332115881243   -3.82217774966875
H         2.42218918773664    0.17144136254780   -4.04885435781925
H         3.49358349487442   -1.79557515607281   -2.00348335666805
H         1.90932641852963   -0.94414113038622   -2.05906562432936
H         4.94440183255860    1.61952904210253   -1.27969331468531
H         1.43941590724173    1.37303983269148   -1.75525498463797
H         3.84948136629862    2.38042813543501   -3.10934175727152
H         2.59561489824377    4.65425813526464   -2.66692342866134
H         2.59577920321282    4.70486399249726   -0.15419888409863
H         0.10975784360658    3.33830329438065   -1.39164412330887
H         0.44037483918156    5.06525225443822   -1.49806345743645
H         0.19538973496782    4.33170393536383    0.06722976188447
H         1.82654426309437    2.08484265278728    0.51893665303198
H         5.81277488445247    2.67322548148342    1.90443467024871
H        -0.06030840243818    2.80148163011231   -5.16188255068806
H         4.35559452312981   -0.46526183188690    1.92021610567170
H         5.17819579731559   -0.11149861165182    0.45426333067498
H         4.43918236154181   -1.78723181479085    0.64767199101616
