36
 energy: -50.517355986291 gnorm: 0.293095179727 xtb: 6.4.1 (79825abcba525fcdf90b791dcacef51065a7a4e7)
C         3.00176271612159   -0.60413080139098   -3.66189981223134
C         2.83078723766656   -0.85283116617375   -2.17047187583216
C         3.26684430131045    0.37369562401393   -1.28074869398607
O         4.62126822099410    0.71110093441189   -1.62541099928185
C         2.39542727670006    1.68924861280679   -1.37743920991984
C         2.82598390392330    2.64837471510475   -2.56923726684051
N         2.85976495827883    3.99419973230676   -1.98650236038349
C         2.13114813790195    3.93162640237893   -0.71080990389737
C         0.61644979307299    4.00232605109559   -0.91378827200014
C         2.60614502715804    2.58281903433604   -0.14421527218571
C         3.99382480845804    2.77936738888522    0.44410022681298
C         5.07555250094508    2.81053123322852    1.17138552331995
C         1.96677562495198    2.55984012872373   -3.81996831599219
C         0.95371079969649    2.74713779757068   -4.61913292877401
C         3.18638680475053   -0.20827563711273    0.16794968743744
C         4.42547222394164   -0.77259344586102    0.80390598392215
O         2.06919498332654   -0.35212492580174    0.69196430355246
H         2.50948820843749   -1.40268306423767   -4.24257275257242
H         4.02731173661987   -0.39050933487276   -3.97944304240457
H         2.40728200340303    0.25039191842118   -3.97473982358879
H         3.43346742977767   -1.70826171047615   -1.82850501056959
H         1.78929408971762   -1.10176355910382   -1.93134457179697
H         4.79369956933778    1.48394700663039   -1.06121853475871
H         1.33718557950823    1.38776378734744   -1.44482966819128
H         3.78212173718653    2.30174538911952   -2.95959305570558
H         2.44661856017283    4.64172215606057   -2.65507138686523
H         2.58281413168829    4.70428458914676   -0.07724576629217
H         0.39212183076302    3.35086671566398   -1.76476092928638
H         0.26691016604697    4.98688354728189   -1.24459032891288
H         0.04192653170658    3.66697346243479   -0.04257651984980
H         1.92687609338079    2.22537270579675    0.63692476190803
H         6.07076816178122    3.01031177769551    1.49676643060393
H         0.54153970391658    2.66984812615055   -5.59887937248888
H         5.24406638330640   -0.92793967533464    0.10330185330689
H         4.20091321671824   -1.72283931272346    1.29887849882313
H         4.78174732603467   -0.07354111460308    1.56566989648608
