36
 energy: -50.523439361582 gnorm: 0.307103841299 xtb: 6.4.1 (79825abcba525fcdf90b791dcacef51065a7a4e7)
C         3.15119158647988   -0.31663828853817   -3.69963483993197
C         3.07469106375963   -0.76529241495047   -2.24763658881770
C         3.41503374789651    0.38097342668725   -1.21984159568099
O         4.72151078754683    0.91803565781560   -1.48776041469846
C         2.38437035955808    1.57093272195003   -1.36519016992649
C         2.79815041536349    2.48668008793290   -2.59639987013640
N         3.09985085463986    3.78974204296058   -1.99392789722133
C         2.19617851593711    3.95120905572963   -0.84523567182099
C         0.75343903988173    4.36581966991083   -1.14038066139729
C         2.32830756700121    2.56438244224682   -0.19317226615826
C         3.65971690696769    2.55757418787742    0.54011101467890
C         4.82194403944670    2.48247383903952    1.12631739725654
C         1.65783024575835    2.43576312671925   -3.60013426033577
C         0.61970890988743    2.61543979807218   -4.36829126720071
C         3.23230330885830   -0.29338822048250    0.17863503823128
C         4.46837800539199   -0.81685068279246    0.85416006503868
O         2.08668188944624   -0.48816937377184    0.61796789140202
H         3.03842350640109   -1.21202685803141   -4.33427146136217
H         4.04326946860857    0.25586820187430   -3.97286001939844
H         2.34527502434362    0.36437322987976   -3.96079968336970
H         3.72420307685777   -1.64125064805139   -2.09678076193823
H         2.04157853073913   -1.04100247322086   -2.00162918149799
H         4.78656258489540    1.64118325633599   -0.84110550539007
H         1.37861661078951    1.14150299894059   -1.50432885776139
H         3.70914532931160    2.19279238492881   -3.11644540058876
H         3.12442201088429    4.57273708780240   -2.64452361261039
H         2.59362867647639    4.68608903856766   -0.13503067606996
H         0.27208773743757    3.70070602981505   -1.86481252718863
H         0.79692577114392    5.37653526951627   -1.56171698272521
H         0.16254510696095    4.34007577679267   -0.21748854156580
H         1.50959279490454    2.35608309497135    0.50372902353204
H         5.77968950520983    2.47202889418877    1.59413544660479
H        -0.18913892391863    2.75121560342570   -5.04879981099580
H         4.19553563944018   -1.14055535624811    1.85707946614582
H         5.20970812517049   -0.01144386170116    0.86604499432419
H         4.88947998297988   -1.61451645295589    0.23586174555846
