36
 energy: -50.516694559550 gnorm: 0.310902948936 xtb: 6.4.1 (79825abcba525fcdf90b791dcacef51065a7a4e7)
C         3.03977377112878   -0.54100374797629   -3.61454387761063
C         3.03565963521126   -0.87984968694147   -2.13109914377479
C         3.45004082603549    0.32227139358718   -1.19872893753639
O         4.82701714981600    0.63375322146518   -1.47078380611722
C         2.54107465240562    1.58550930073914   -1.47694972465079
C         2.94537481138955    2.55818841988062   -2.66695863317893
N         2.97843065411218    3.92250219962295   -2.12888677132979
C         2.19826798353318    3.96973722161957   -0.88337315224357
C         0.74436907543795    4.39227796012984   -1.10279738263643
C         2.45278070252069    2.56977958538306   -0.29918594708060
C         3.74836504545608    2.62466540299156    0.49381487010452
C         4.92625727562474    2.69348060862387    1.04868804977857
C         1.80743867929805    2.47122711605351   -3.67092302720001
C         0.61235969187610    2.67945553914812   -4.14891045501299
C         3.11038448757664   -0.25989213982844    0.21180646573340
C         4.34167824194511   -0.76860122811579    0.90704629293465
O         1.92143857069370   -0.31534296437199    0.56780407368069
H         2.86293991106627   -1.45708152798539   -4.20338363413176
H         4.04190752385860   -0.20816837426733   -3.90293109225125
H         2.31219034735134    0.23929490128822   -3.82249013862519
H         3.68160251679420   -1.73234650498074   -1.87045929583720
H         1.98052709208559   -1.01012821109746   -1.85984278555186
H         4.95006630737127    1.59058767727989   -1.34969094818695
H         1.53981001462601    1.17014862152141   -1.67758546189311
H         3.88142448073439    2.31368228452258   -3.16771490193761
H         2.79600002435175    4.61788638862634   -2.85007999523050
H         2.71844985366272    4.68154088192411   -0.23133579156930
H         0.15991288544292    3.75712103232149   -1.77649122474614
H         0.69084505910337    5.40819651837251   -1.51023580910786
H         0.14838352714782    4.21865415822159   -0.19935715241283
H         1.69022775056108    2.30297405903174    0.44019332653421
H         5.82872665448258    2.66803405515816    1.61538081600588
H        -0.27967027008717    2.64528785224884   -4.73104180994629
H         5.22513205662759   -0.57555553210731    0.30097887705394
H         4.27133192378367   -1.82902859318219    1.16960474482546
H         4.39705883686760   -0.22481283463750    1.85420918320608
