36
 energy: -50.513681581063 gnorm: 0.309468079251 xtb: 6.4.1 (79825abcba525fcdf90b791dcacef51065a7a4e7)
C         3.77492865505398   -0.08670979074891   -3.78822763334226
C         3.06215845753778   -0.54652056596081   -2.52490880156135
C         3.36438763710377    0.41144463988841   -1.30955649016355
O         4.76085264298562    0.75298692109831   -1.32780287498503
C         2.34237409658101    1.61738475492699   -1.33390983921698
C         2.74718407494561    2.60834712793767   -2.50856167193437
N         2.78642650485846    3.94588858487249   -1.90738867943204
C         2.11882905169788    3.93728240213593   -0.59726322926162
C         0.60855565725079    4.12619237599065   -0.75184987818981
C         2.32841985338120    2.50454956672824   -0.07834016668679
C         3.69193499628032    2.53460998302503    0.59272196449706
C         4.85462749033715    2.56166629202513    1.18218274921004
C         1.73710469866653    2.51591282458275   -3.64063980227620
C         0.83386094732103    2.75363338596511   -4.55041144953475
C         3.06711445170483   -0.43353335961782   -0.02833372668249
C         4.29494383160851   -1.10221386921162    0.52260098965538
O         1.97833508665638   -0.43575254171767    0.56996056064577
H         3.48344586273986   -0.79641652761861   -4.58104230376420
H         4.85678678850261   -0.01691672018547   -3.63679931524244
H         3.36883585116915    0.88264263795096   -4.06558980237931
H         3.33966533271359   -1.58213692767351   -2.27507917228921
H         1.99658914998446   -0.66304805294226   -2.75908943617812
H         5.00106694496888    1.27758518077945   -0.54522348364027
H         1.37359234035470    1.11567874844057   -1.49222297150720
H         3.76221439012215    2.38429250692542   -2.83450959540272
H         2.29690600496444    4.57876175731970   -2.53731010427273
H         2.52976617990707    4.78093120872287   -0.02999458250850
H         0.21261108205063    3.18432716631839   -1.14554339442605
H         0.44339388055418    4.91023104572961   -1.49949041255509
H         0.15513284507619    4.34013575309445    0.22292406502512
H         1.61445586340407    2.23048736618584    0.70555984530463
H         5.83906564118783    2.88104364519266    1.43736669076171
H         0.13322008479923    2.82216552035147   -5.35051612526130
H         5.01253224981266   -1.34322381735200   -0.25973913038012
H         3.92484845056363   -1.99345409325703    1.03942980119599
H         4.64468930200237   -0.44834701990332    1.32635880132356
