36
 energy: -50.512231073792 gnorm: 0.312706443584 xtb: 6.4.1 (79825abcba525fcdf90b791dcacef51065a7a4e7)
C         3.39020668635623   -0.40625045356599   -3.74127455576646
C         2.98993859507094   -0.76701853567604   -2.31822373968836
C         3.38852709698091    0.39854068659593   -1.33398801067881
O         4.78430875903046    0.73787710369411   -1.39516761738392
C         2.51153150434050    1.71316745424792   -1.37906056581764
C         2.87904016570673    2.68747482967029   -2.57962170120434
N         2.93483078209679    4.01785099287869   -1.96403029006475
C         2.05160249108841    3.97000173035458   -0.78937826977331
C         0.54565949626250    4.06345620213369   -1.04218587663374
C         2.52083645012476    2.64797648732704   -0.15850460468363
C         3.94079920911604    2.67987327203879    0.38287322174559
C         4.95165732568845    2.67287457361375    1.20638206234327
C         1.72725038753564    2.58654981918119   -3.56633333476396
C         0.69825679331829    2.57058353769629   -4.36693441581191
C         3.13816792511078   -0.29351463675259    0.04524028130057
C         4.28043781831093   -0.93073357880392    0.78510458485450
O         1.99641829609476   -0.34967751028636    0.53171229353098
H         3.14597187400237   -1.28251248264036   -4.36554628045502
H         4.47514070066462   -0.26656531409099   -3.78158431833089
H         2.92357866770378    0.50068217037238   -4.11706276199101
H         3.45274140837882   -1.70427055763266   -1.97282778709232
H         1.90259216411590   -0.88725258810646   -2.23408876417232
H         4.87419650422176    1.67077127513631   -1.13639085475286
H         1.45033214816565    1.44285546666959   -1.50593622097730
H         3.80311797924814    2.31657662491584   -3.02148570482785
H         2.48392358751616    4.68551814184864   -2.58681681956620
H         2.38860169039587    4.81493872710880   -0.17707167230207
H         0.21879769700403    3.12330914692503   -1.49843322245858
H         0.36896325565653    4.90842190157694   -1.71729536477523
H         0.04958851823194    4.22207672170315   -0.07766456002914
H         1.91052162165325    2.39008176404916    0.71348165652968
H         5.87209459804279    2.43672121207833    1.68935829500441
H        -0.24254605014690    2.41062069841163   -4.84134319132713
H         4.88004323104171   -0.20165597251234    1.32731689591063
H         4.91633307357963   -1.59028872934490    0.18592517146285
H         3.86604343683126   -1.55444747742032    1.58206671647205
