36
 energy: -50.518112660801 gnorm: 0.309938206220 xtb: 6.4.1 (79825abcba525fcdf90b791dcacef51065a7a4e7)
C         3.40837947122134   -0.63624498594984   -3.56960187774243
C         2.95758095845872   -0.79140625172419   -2.12455950633046
C         3.33530489794076    0.44452793259161   -1.22128082496803
O         4.71027743542820    0.67880177377211   -1.57008572472252
C         2.35454474996835    1.67040534419887   -1.40764181338103
C         2.60592632480084    2.50956043783415   -2.73365482407197
N         3.00760169561570    3.84000843554185   -2.26404745767573
C         2.41405899558668    4.07855323410678   -0.94004120768664
C         0.94825678826650    4.50864958571987   -1.02341226439450
C         2.59364216368633    2.69690169646721   -0.28833443277932
C         3.96069466330466    2.49029021658121    0.34323561500173
C         5.14078431002863    2.72882709267329    0.84377381635834
C         1.31362172578055    2.30183134331356   -3.50644376555666
C         0.19534895130113    2.21330897878241   -4.17102977967691
C         3.13450161108413   -0.14851232653595    0.21115493573298
C         4.24350869857582   -0.81694920864933    0.97373153158959
O         2.01000421882038   -0.07214941910128    0.73372149279109
H         3.18463665441647   -1.56177735781313   -4.12685402178113
H         4.48410027789955   -0.43365336612149   -3.56949656346083
H         2.93627016064015    0.19082125063869   -4.09358613874225
H         3.43025452201024   -1.71425154486975   -1.75461028338095
H         1.88425474991002   -1.01293194368465   -2.07207718853656
H         4.92034878317924    1.59455161540768   -1.31986780417595
H         1.28810306480313    1.39356153427983   -1.44465112549511
H         3.39992983361229    2.07601472599070   -3.34055316880065
H         2.84089192453807    4.62319791154750   -2.89315941439433
H         2.99723803998949    4.88666258317047   -0.48258320300140
H         0.45235020023420    3.98974504839606   -1.85026865787121
H         0.93166240609291    5.60090228092019   -1.11099130752296
H         0.41450347808433    4.30859934265602   -0.08712408467466
H         1.93735229735348    2.52799855770312    0.57196159448929
H         6.03959814976779    2.70813706583462    1.41643848172219
H        -0.69786941280443    2.01893991577312   -4.71888319613354
H         4.27086898648649   -0.39370457004792    1.97632336549371
H         5.23352871340886   -0.70739892296017    0.51958305206581
H         4.00333305705303   -1.88022882496082    1.06115282874912
