36
 energy: -50.518410862281 gnorm: 0.295654950201 xtb: 6.4.1 (79825abcba525fcdf90b791dcacef51065a7a4e7)
C         2.67215754599652   -0.60663051520681   -3.55861403446078
C         2.84036476886846   -0.91171942259094   -2.07737507325686
C         3.40770920079367    0.32345840073629   -1.27826488765625
O         4.71837278650595    0.68858804782054   -1.74295819098806
C         2.37886059366003    1.52030842915575   -1.37000828621596
C         2.75377750973474    2.45982852350689   -2.59574226211781
N         3.09786093942264    3.74486142746308   -1.97746793887384
C         2.20787704677129    3.87649672858591   -0.81437295280535
C         0.77473363940987    4.31125748661886   -1.12677138036599
C         2.30660207769040    2.48205982769349   -0.17270955667624
C         3.58238691752448    2.53971399128242    0.65157835279532
C         4.69100795817093    2.83216929718751    1.27244801698465
C         1.59497211045646    2.58589798952774   -3.57128413282766
C         1.02274419402232    3.01345806897525   -4.66206020254560
C         3.44246611599266   -0.21584523795815    0.18864835067573
C         4.75686164568539   -0.64841795376773    0.77471394365551
O         2.36525139160805   -0.32214265200863    0.79832922918509
H         2.49916381486275   -1.57416041126859   -4.05977273250990
H         3.58387878230844   -0.18681062782331   -3.99534539115175
H         1.85439144935999    0.08061024994475   -3.75972099163912
H         3.51591839709449   -1.78047272739110   -2.04871943962384
H         1.84985177180766   -1.16283481729401   -1.67777247096536
H         4.92619852802116    1.47469567587748   -1.20987281863226
H         1.37208806047176    1.11591212960215   -1.56541234600888
H         3.62299764540273    2.12062119439942   -3.15799115495498
H         2.93499952881690    4.50489100721078   -2.63533644859535
H         2.66216784428593    4.66248499112396   -0.19935370538893
H         0.39189811274780    3.75917615569811   -1.99136372527643
H         0.79281616279674    5.33612463735197   -1.51443329339157
H         0.07281593437185    4.29562544610653   -0.28497839838478
H         1.41683183652684    2.34604833826604    0.45112028759298
H         5.72461291990034    2.85282217481337    1.53220451525351
H         0.26919680720132    2.85609591370889   -5.39905768688794
H         4.93139082401539    0.06890433314734    1.57475350498484
H         5.52758687100071   -0.55312898195058    0.00316071915615
H         4.75454092697033   -1.64516906228551    1.22457191988023
