36
 energy: -50.521931485983 gnorm: 0.301897030101 xtb: 6.4.1 (79825abcba525fcdf90b791dcacef51065a7a4e7)
C         2.77474367685140   -0.87333696094442   -3.41313001474841
C         2.78402937470916   -0.91055647709137   -1.89195604527095
C         3.27933126915677    0.39473172241345   -1.15913970575411
O         4.60971471942799    0.65988657025623   -1.63544985195546
C         2.35344801270123    1.66431808276708   -1.33317123235169
C         2.74547500708360    2.39615297129142   -2.68831587112135
N         2.93684518475089    3.79877456028608   -2.30361311733927
C         2.32637456082906    4.07443874514105   -0.99459670168798
C         0.84854500113682    4.46982895607515   -1.00859959307893
C         2.50078307856470    2.74184472566658   -0.24646059133681
C         3.88708707396570    2.69691261015791    0.37526593132496
C         5.13149471077860    2.74062802913757    0.76203260357459
C         1.67860628739973    2.18421924539819   -3.75005057980932
C         0.89486428980687    2.48646619716438   -4.74726674003845
C         3.27979257060215    0.03093259934478    0.36123554726588
C         4.46289515333844   -0.78037547376558    0.80875665986099
O         2.25469044389242    0.19552997124455    1.04349269573430
H         2.57304466778509   -1.91680644299629   -3.70925485437310
H         3.77169777924465   -0.63077801606456   -3.79453046462794
H         2.04816395070361   -0.15764589684406   -3.78910004958236
H         3.44292351642984   -1.73383831184315   -1.57574142439631
H         1.74777084913535   -1.05623017539297   -1.56210059030121
H         4.87374050169972    1.46889911248537   -1.16520964948513
H         1.31033435885628    1.31089569289496   -1.38130191931673
H         3.69516150161325    2.04134162470325   -3.08698055558571
H         2.67353938416537    4.55139197609940   -2.93701412873831
H         2.99333051264491    4.81445106591390   -0.53638510449489
H         0.25858341559913    3.59881491677029   -1.31217269475625
H         0.56451914060627    5.32013763301679   -1.63888989972551
H         0.56350736141680    4.75964272521961    0.00939341967005
H         1.86524200081802    2.52530033565399    0.61872722443606
H         6.05079106240081    2.77185039826880    1.30069630093120
H        -0.03532993006496    2.49477866723494   -5.26729693139012
H         4.48116315312209   -0.94907039242009    1.88406280093356
H         5.38093374731738   -0.31596048619387    0.43470372007374
H         4.33866932639568   -1.73218523216534    0.28481344150150
