36
 energy: -50.517027976532 gnorm: 0.315005297687 xtb: 6.4.1 (79825abcba525fcdf90b791dcacef51065a7a4e7)
C         3.60274770344788   -0.26015996443492   -3.74360538779819
C         3.06207723196526   -0.67028011964845   -2.38165139452680
C         3.44500282604118    0.44173927417659   -1.33146002227424
O         4.82034439188796    0.82155024856767   -1.50831525130573
C         2.47761996685968    1.68606933062858   -1.45478653421410
C         2.88176422682920    2.82949498073073   -2.48188423038623
N         2.75608711515046    4.08132317717185   -1.72749871614105
C         1.91122029817701    3.89264599527957   -0.53889024640698
C         0.42709676554307    4.09801496320912   -0.84826159978605
C         2.33617143413654    2.46934830165652   -0.13942433964622
C         3.70842666594304    2.57087067961149    0.50633904522589
C         4.84877911559060    2.64899618144155    1.13366876713812
C         1.81550536225052    2.60007036559408   -3.54059181189965
C         0.96405480807431    2.42622722182313   -4.51262848382255
C         3.16485203785662   -0.29288020346602    0.01973969776286
C         4.29316732783483   -1.08810887823419    0.61366193042615
O         1.98651748970867   -0.41578519769976    0.39366955916600
H         3.51609207499738   -1.10739821411917   -4.44494633388654
H         4.66669123203937   -0.05069876408486   -3.59404334186324
H         3.09578935972846    0.64153338290655   -4.07741313875003
H         3.51970961494392   -1.61103857262491   -2.03890907394250
H         1.96961612426821   -0.73179692323212   -2.46290157026078
H         5.01424928566240    1.43919287088801   -0.78288073540899
H         1.49776259378481    1.31520242302170   -1.79778409074183
H         3.90985568571367    2.74202014288199   -2.83131970845635
H         2.42972801393187    4.87899330818854   -2.26987484507916
H         2.21259069417085    4.57072154762336    0.26844845312625
H         0.03095459946539    3.39487779765089   -1.58822529191298
H         0.28865208258775    5.10560548758212   -1.25637410345594
H        -0.14831218346408    4.04585427842056    0.08325976514960
H         1.76830943231673    1.92976686069387    0.62591121949072
H         5.84369598748177    2.69361971078286    1.51365345859457
H         0.24674669415712    2.39837995927097   -5.30031837930883
H         4.53582027588413   -1.71867347910159   -0.23990870663108
H         3.91789015697324   -1.58674705108183    1.51306104151470
H         5.17204230260437   -0.48290582719220    0.85282381579397
