36
 energy: -50.518241444873 gnorm: 0.302592014256 xtb: 6.4.1 (79825abcba525fcdf90b791dcacef51065a7a4e7)
C         2.98776802310662   -0.47728184283317   -3.63455478920666
C         3.05143270314345   -0.86698034010261   -2.16502300387634
C         3.40366370419734    0.36775346593614   -1.24987994411459
O         4.75675281363783    0.74439186038428   -1.55711272497202
C         2.45159676247494    1.61917666597398   -1.41390697568466
C         2.83475155789668    2.59187903789938   -2.61087272900013
N         2.92188349996375    3.91057864272180   -1.97415811222562
C         2.10325952919425    3.89212904927801   -0.75280495036430
C         0.62044769891577    4.16193980935707   -1.01544723865917
C         2.34612208832731    2.49574728850506   -0.15525276773692
C         3.70974097847841    2.58422456617864    0.51041750106009
C         4.80439821692804    2.83836330537948    1.17162016891860
C         1.69369247154809    2.60224602646092   -3.61500525033457
C         0.97791222988974    3.00456800779911   -4.62784310917746
C         3.30366304868285   -0.26684510914470    0.17531319230235
C         4.49279023329036   -0.98267215932196    0.75133042220119
O         2.18879614800208   -0.27000463696702    0.72345853135531
H         2.94784085997473   -1.41418796169652   -4.21577223464730
H         3.89776937347127    0.00919147614349   -3.99987640295417
H         2.18633997933572    0.21186230938091   -3.88808722392779
H         3.81855558899061   -1.64576351157299   -2.03484845428044
H         2.11288951223376   -1.38140510566696   -1.92344275639086
H         4.96767705392823    1.58609519156613   -1.11849760893707
H         1.43545391485165    1.21517958124030   -1.55372882783231
H         3.78001813670880    2.40459205590698   -3.11893155004818
H         2.73075402994633    4.76207028687330   -2.49893547674840
H         2.46559431451117    4.66652957596702   -0.06620194087371
H         0.20554188247027    3.38290389045422   -1.66339242537126
H         0.49005174976383    5.08687547355151   -1.58855484690486
H         0.03724527293076    4.27594197932265   -0.09434643457771
H         1.60373068506542    2.18016040166245    0.58543194322938
H         5.80244645605162    2.75184755089996    1.53583709374153
H         0.13195083547058    2.82521728445965   -5.25069497626230
H         4.03728154944236   -1.51337590475609    1.58556083257837
H         5.26300486026439   -0.28146943508548    1.08819228416296
H         4.91060671446483   -1.56951114428914   -0.07143307017892
