36
 energy: -50.518489084340 gnorm: 0.306562376457 xtb: 6.4.1 (79825abcba525fcdf90b791dcacef51065a7a4e7)
C         3.08083490923903   -0.64328475271379   -3.55104564312042
C         2.82748779556644   -0.81380358144767   -2.06034770233012
C         3.33313347704015    0.38986828028090   -1.17625631489100
O         4.67113600767640    0.72155836334087   -1.58470399860720
C         2.38773209064028    1.64178272572092   -1.37201837178888
C         2.71876563490250    2.58180879191418   -2.60994093147080
N         2.97600095096609    3.90962431638041   -2.04187226203337
C         2.20620934890884    4.01358843619861   -0.79335254613328
C         0.72641988337776    4.33828729943816   -1.00619877575665
C         2.47534667093317    2.62360118483682   -0.19215924767486
C         3.83150979927500    2.77943957810935    0.47637462256640
C         5.04220621825152    2.77461282219446    0.96035891044658
C         1.66981865089982    2.53331439616342   -3.70892403444670
C         0.87684379476692    2.68017777922094   -4.73345652222256
C         3.17655865447045   -0.26124372513968    0.23634003094905
C         4.47270561202670   -0.84888927954540    0.71894074775752
O         2.06648766684175   -0.48086706422771    0.74908703440271
H         2.93404906226245   -1.56251645996527   -4.14321787727820
H         4.07535440169944   -0.22639188659141   -3.73906146290495
H         2.42996521002167    0.10951689623893   -3.98824534750358
H         3.38520462732468   -1.67613381087156   -1.66378158909880
H         1.79922915269624   -1.00852437013846   -1.73076438107689
H         5.07093546210774    1.28131892560195   -0.89756117311589
H         1.32662095970378    1.34577407561358   -1.41363700075220
H         3.63807314733190    2.24123901333232   -3.08493040224309
H         2.76582119863432    4.64042651889146   -2.71915535284019
H         2.65500938183281    4.81533375566388   -0.19486333863645
H         0.27198656006018    3.59058458873910   -1.66445994980444
H         0.56097202805057    5.36525810475651   -1.35104567861782
H         0.22278351510180    4.36685132448383   -0.03301700423976
H         1.77502035433731    2.31655025617068    0.59181568570411
H         6.00194396666720    2.79641086324299    1.42368116585749
H         0.14670792668460    2.40744214348288   -5.46028432925312
H         4.92699979874897   -0.23572597463231    1.49529282873250
H         5.20186161479641   -0.95624110515243   -0.09050279999487
H         4.14526397646093   -1.79596867144853    1.15679114949728
