36
 energy: -50.515484816037 gnorm: 0.300597688044 xtb: 6.4.1 (79825abcba525fcdf90b791dcacef51065a7a4e7)
C         3.07383190647419   -0.50489294118886   -3.60214620894137
C         2.82327401166411   -0.73030221608699   -2.11828193282049
C         3.39988768493229    0.44966846888727   -1.24575287573030
O         4.74598706318990    0.67785854362689   -1.69635730495774
C         2.39762810394537    1.66850991654531   -1.34217715169499
C         2.83849793802736    2.62120892105973   -2.53535899183221
N         2.94583377106918    3.92274228974553   -1.86718536782210
C         2.09318497096490    3.95199038779940   -0.66955282820033
C         0.62208190261277    4.17944782401619   -1.02258061139815
C         2.31954690378102    2.54796720235748   -0.08353915506454
C         3.73613848785824    2.42361423900836    0.45330930335917
C         4.96600703050219    2.72392287718276    0.76521962418663
C         1.79688616330660    2.54361231479587   -3.63963660009070
C         0.93520139048579    2.60710405921321   -4.61611646680619
C         3.28198301779525   -0.13139945350790    0.20074272616938
C         4.46597088377825   -0.81140950656417    0.82842635357163
O         2.14359078090625   -0.12646909446101    0.69817645150015
H         2.96221694732635   -1.46777429748753   -4.12902624204172
H         4.12757325098702   -0.26018802775520   -3.76938052594032
H         2.40676915372881    0.26507691915585   -3.98116991456061
H         3.25379020916221   -1.68328201854310   -1.77417225567746
H         1.74926417416406   -0.66732557161268   -1.90288925774334
H         5.15721433755320    1.29581389948058   -1.06837636437538
H         1.39631393983588    1.24864736471144   -1.53295310274227
H         3.81433640216420    2.29815708382373   -2.89606090220073
H         2.85791244413863    4.77503305430042   -2.41748533980989
H         2.40373771135581    4.81931838017427   -0.07482136992589
H         0.32234202942381    3.45156687660855   -1.78364703351595
H         0.46110589380340    5.16355158189355   -1.47710006587268
H        -0.02103247432733    4.05943096327579   -0.14306477487001
H         1.55934211002095    2.20359287136516    0.62557925469840
H         5.99672057490279    2.46875373407423    0.85880137792509
H         0.40544094057141    2.38287076519104   -5.51324247217067
H         5.26472846845282   -0.96361944304256    0.10462150830445
H         4.14801014719279   -1.81808405896705    1.11807970303031
H         4.79241664003087   -0.29369199315943    1.73467803522145
