36
 energy: -50.513815725801 gnorm: 0.304720051973 xtb: 6.4.1 (79825abcba525fcdf90b791dcacef51065a7a4e7)
C         3.08981916731388   -0.41721977755759   -3.72493786488597
C         3.43493064807220   -0.76947288984698   -2.28540405714985
C         3.55005217571366    0.48206474814482   -1.33328975999167
O         4.93586750986414    0.86360218107177   -1.36559509155200
C         2.49784058471771    1.65554807324555   -1.45651300196116
C         2.82173336188484    2.67843166474469   -2.62889821933119
N         2.97439181457595    3.96027570602935   -1.93209313018634
C         2.10759237623817    3.95851416228666   -0.74430327000565
C         0.64327321918362    4.33618847277708   -0.97590907225789
C         2.29280522608380    2.52885857533447   -0.20791354474886
C         3.44486913921590    2.66174634542627    0.77468056137475
C         4.24907493955410    2.18640693935547    1.68427135665929
C         1.71288120887298    2.60498962360968   -3.66594138287559
C         0.73140978967862    2.74292524313958   -4.51313227558789
C         3.30164626780232   -0.26241849681394    0.01871991674046
C         4.45958221952679   -1.07156927777946    0.53124993877225
O         2.16652434717491   -0.27978885227647    0.52329696335187
H         2.90916661760969   -1.29798018518761   -4.36433346252291
H         3.83915908083193    0.13218064611706   -4.30361523218907
H         2.18503708989929    0.18512714052320   -3.71920627021875
H         4.41085904914547   -1.27546049354550   -2.22652737449287
H         2.64671287157207   -1.45296072875577   -1.94567726886659
H         4.99095259336515    1.83039342858053   -1.27831926426413
H         1.53478628691002    1.16203704441826   -1.66694908904205
H         3.76493314733980    2.41735322623532   -3.10737630077383
H         2.85249628394542    4.74048910398910   -2.57503037626068
H         2.53699748018247    4.68758821613844   -0.04683023358934
H         0.18391865898662    3.66110926244314   -1.70538711050630
H         0.48971181893767    5.35347074412494   -1.35342342909692
H         0.14278405607931    4.27915295934253   -0.00235588793038
H         1.46157717546403    2.12609914883726    0.38047297138197
H         5.09168198250969    2.21461632062788    2.33654188090510
H        -0.09534033261627    2.49714171681354   -5.13910070052490
H         5.11699214801401   -0.27317417991355    0.87103289820244
H         5.07664214154366   -1.55753050680580   -0.23129217724176
H         4.20684700135021   -1.74017792746935    1.35888376445313
