36
 energy: -50.515479302314 gnorm: 0.307756243573 xtb: 6.4.1 (79825abcba525fcdf90b791dcacef51065a7a4e7)
C         2.95292057609855   -0.82618439142640   -3.53415056506573
C         2.52896079267519   -0.70148917830849   -2.07807674615987
C         3.19423874845956    0.43137639471890   -1.20621558366241
O         4.55478702996103    0.50317415351036   -1.66540184153225
C         2.34206837829210    1.75715943296928   -1.33071979784300
C         2.82379200473108    2.62990211969443   -2.56843827172211
N         2.90752277374974    3.99804554429477   -2.04581145908959
C         2.26813768554133    4.05675500457442   -0.72296262968817
C         0.74235290484355    4.14613978657941   -0.79005135158614
C         2.58828627846786    2.67684859262689   -0.12354957362489
C         4.06232917726903    2.70337871727537    0.24644403922559
C         5.30624519754780    3.06268592227669    0.40013588073755
C         1.80634374777435    2.28777500643212   -3.64461363792803
C         1.09758501983148    2.13591272104193   -4.72842343749526
C         3.15019352683675   -0.17012364854617    0.23605644900508
C         4.44152741590489   -0.58460332110067    0.88327436221668
O         2.06537932152166   -0.17894686297722    0.84145034015651
H         2.47674581896516   -1.74371458820981   -3.91963325953577
H         4.03671398931318   -0.89345916817863   -3.67229746699507
H         2.62379275474245   -0.02416649724999   -4.18983908678475
H         2.67866674874363   -1.62168594048216   -1.49262631556619
H         1.44268500068809   -0.54850749540257   -2.09949372779013
H         4.94168221880459    1.29370148816273   -1.25222464242357
H         1.26370911659478    1.52974444157372   -1.35780808568745
H         3.81064149845480    2.37154068851690   -2.95067707650691
H         2.50724565415736    4.71545028371376   -2.64753268300277
H         2.75135320671644    4.87788936175937   -0.18014822173868
H         0.26479072488548    3.34058124619343   -1.35740182868896
H         0.53123010811814    5.07294588885941   -1.33541272733257
H         0.32842372267531    4.15032486655899    0.22493306786055
H         1.95610075879469    2.41159778388512    0.73046294729565
H         6.31046852985006    3.10597112212980    0.75496134932267
H         0.46273456119429    1.69149936901475   -5.46001310067568
H         5.03875567230375    0.32324986232196    0.94805090751306
H         4.99349290594502   -1.33147140602794    0.30369356834728
H         4.18465608428433   -0.99836762456808    1.86240999272394
