36
 energy: -50.511689746807 gnorm: 0.300855594254 xtb: 6.4.1 (79825abcba525fcdf90b791dcacef51065a7a4e7)
C         2.90464076925654   -0.63894127942437   -3.56220511144526
C         3.05275028339523   -0.94604343169764   -2.07923727006086
C         3.36993647538086    0.34429311808083   -1.23038771059068
O         4.72608947464888    0.71753671036020   -1.52810713113514
C         2.30964589234266    1.49632457591726   -1.44948526446747
C         2.74420151819992    2.40613630740652   -2.67793488713595
N         3.05346103407182    3.72321632673692   -2.11081508621265
C         2.21520069218005    3.82861844852477   -0.90732054677979
C         0.81401758059706    4.43661583690820   -0.99412362997344
C         2.29349240952559    2.44506567418837   -0.23979905250309
C         3.58405687103185    2.41916133510962    0.56280539603830
C         4.83758964637790    2.59229953287312    0.87701654132310
C         1.65198909137244    2.61897345739583   -3.71339502624588
C         0.76956163351298    3.11064776210943   -4.53778749610265
C         3.28221329199320   -0.11336016537354    0.26184185058361
C         4.54381163322606   -0.67389755840934    0.85547062667207
O         2.17617477210796   -0.11690175859888    0.82758714908347
H         2.92446579273428   -1.62734937227424   -4.05195748192420
H         3.77974665049367   -0.10550234243646   -3.94671938552844
H         1.97733515640993   -0.09159745562563   -3.71054360439709
H         3.90692782535880   -1.59670693280732   -1.83645361639284
H         2.11119476059955   -1.33221030280894   -1.66910859593258
H         4.87950857840154    1.57507597231316   -1.09633665166411
H         1.35504119503474    0.94677762012499   -1.49463020239314
H         3.68594407376501    2.05986456083867   -3.10213518635817
H         2.88232133191866    4.39957359124157   -2.85257773420369
H         2.75572778560565    4.59199930176829   -0.33505619287306
H         0.10159143318078    3.83448944989917   -1.56750792891397
H         0.80066784788462    5.44529748672355   -1.42231111662212
H         0.53565564084096    4.56888551601618    0.05781154665957
H         1.47651233241356    2.27503643885622    0.46941707393730
H         5.78599603204304    2.79780488056999    1.31807446435737
H         0.19581442199809    3.06904639343861   -5.43491916860001
H         4.57235084494697   -0.48630503183705    1.92741724574162
H         5.42643522087190   -0.17706346910734    0.44011146457476
H         4.60939618577456   -1.72755014398027    0.57015455403502
