36
 energy: -50.490685428232 gnorm: 0.311553669674 xtb: 6.4.1 (79825abcba525fcdf90b791dcacef51065a7a4e7)
C         1.10723440767197   -0.67418532291475   -2.66435873736273
C         2.31457246309021   -1.00949849754479   -1.80102700324365
C         3.22560211140717    0.25957662715721   -1.58749856620764
O         4.14444812290546    0.15194606067763   -2.68806037637791
C         2.48086264297261    1.65270116429403   -1.65045492150251
C         3.29595870946834    2.96383520173139   -2.02758940770291
N         2.31616125103265    4.02932605858378   -1.78948800642024
C         1.50504941480265    3.61444863044683   -0.63529415518024
C         0.02512326851396    3.97585407779409   -0.77570230978540
C         1.75009322926510    2.11751959106787   -0.38016704486898
C         2.66981333850972    1.85834547519864    0.80192658253631
C         3.36809090493121    2.00641688714252    1.89304218555859
C         3.97536391690074    3.05060071758011   -3.38452922423123
C         4.70078945448908    3.07542472321939   -4.46766649737293
C         4.15563029322945    0.04871177484777   -0.34875946540000
C         5.44357977191171    0.81976370178484   -0.41870769459785
O         3.87708719324357   -0.71908681172306    0.58734980999397
H         0.62053164572061   -1.53913964506750   -3.14620457915857
H         1.47951219695611    0.06165259247826   -3.38419930595953
H         0.41874071051723   -0.21421670610295   -1.96016375452344
H         2.91949465123070   -1.79357563199206   -2.28187870883404
H         2.00976434022727   -1.38499572591605   -0.81616608538218
H         4.01285930368912    0.83968231034242   -3.36262689634427
H         1.65597111024782    1.55742026675231   -2.37556566700248
H         4.07358716901569    3.27364159729747   -1.33042152536015
H         1.66476584243542    4.14626633509886   -2.56341873433907
H         1.83667224695157    4.13065162541077    0.27353318495539
H        -0.44426814628252    3.20046959656981   -1.38997209739472
H        -0.24388601444078    4.92626533978304   -1.25037467604892
H        -0.37614256516592    3.98424898332502    0.24432882475754
H         0.83778779041240    1.55266162118903   -0.16110495770610
H         3.88857634823723    1.90506226111144    2.81773748121318
H         5.17767769150857    3.09798916579605   -5.42046775238277
H         5.57678293810294    1.08151156796221   -1.46695383700478
H         6.30925648846315    0.22014619860978   -0.11961837639006
H         5.51143377601967    1.67082920569886    0.26464705281809
