36
 energy: -50.520760865947 gnorm: 0.304945737745 xtb: 6.4.1 (79825abcba525fcdf90b791dcacef51065a7a4e7)
C         3.03389914470724   -0.48207406673823   -3.72535978732472
C         2.95689763537604   -0.80620066111366   -2.24061923992013
C         3.32407327594925    0.34485908554849   -1.22752270798661
O         4.69978748841044    0.68178391817112   -1.47448559892718
C         2.42663308063775    1.63361110127331   -1.40949990029979
C         2.85086979659641    2.51019580153532   -2.66540872699621
N         3.08355450523802    3.81880618029476   -2.04463274539599
C         2.22797642269472    3.92507469503863   -0.85346429427774
C         0.71571961601818    4.06638680593044   -1.03682179145014
C         2.50833664733708    2.56605724015154   -0.18983598513434
C         3.82868395132358    2.71770559088882    0.54778676288337
C         4.86808654137118    2.83983955105310    1.32545984154317
C         1.70178292160317    2.47685187643373   -3.65983969526423
C         0.72882634604368    2.86953848493984   -4.43391822709415
C         3.14828119723878   -0.25658062187894    0.20469877830398
C         4.43404129519552   -0.81783649662358    0.74325285612669
O         2.03643505175885   -0.19050079042843    0.75500151599256
H         3.02995717352186   -1.44475101400216   -4.26428327799164
H         4.01992383188475   -0.05710724959557   -3.93837892062817
H         2.24624538051138    0.16989912951243   -4.09416565123671
H         3.59114789163061   -1.68744639258992   -2.05879862720664
H         1.94679472579436   -1.18938189517777   -2.04899085653863
H         4.85612148786578    1.59381355440206   -1.17599208372890
H         1.39984315220729    1.23398462161295   -1.44571026068171
H         3.76005796081975    2.19365683372447   -3.17522148380068
H         2.94986196543588    4.56917064965337   -2.71993952416790
H         2.56905561351316    4.71964763410029   -0.17913115024216
H         0.35988305219469    3.28982993266417   -1.72181560568192
H         0.41306165827031    5.02937749406540   -1.46344634502594
H         0.24522239548130    4.03426982005972   -0.04730215040734
H         1.73148818555180    2.25752207193894    0.51774187651712
H         5.68043690725557    3.01922320276424    1.99190383039376
H        -0.00892164626433    2.75260871693812   -5.19406106301498
H         4.89710922917582   -1.32069629663625   -0.10396323952895
H         4.36791085798887   -1.43508367960635    1.64493152587094
H         5.12217498616730    0.00838910643980    0.94253568703877
