36
 energy: -50.517994101088 gnorm: 0.315301014640 xtb: 6.4.1 (79825abcba525fcdf90b791dcacef51065a7a4e7)
C         3.04183728171146   -0.71854723434028   -3.61779334559014
C         2.88995420843420   -0.92848211175410   -2.11835989827011
C         3.36938004822213    0.33618650496411   -1.30787533381425
O         4.73774726203527    0.57505400973959   -1.67883634301506
C         2.40739453090197    1.58754402210095   -1.39778959234459
C         2.85662597985086    2.58158449250799   -2.55354005681377
N         2.96196898427841    3.86849343051195   -1.85731140607232
C         2.04620143788066    3.90325400326562   -0.70737635158773
C         0.55457013696319    4.18050935812403   -0.90403660470338
C         2.37782032040624    2.50331234211479   -0.16320257378981
C         3.78816835547650    2.60992549923570    0.39353223122589
C         4.95786549399122    2.80119827926954    0.93692273963000
C         1.83580762850160    2.72123644337586   -3.67105183320984
C         1.08079546644002    2.86316641366319   -4.72454948913143
C         3.18221649327255   -0.14759551499986    0.16685031180570
C         4.43695663725923   -0.66282843617183    0.81368096049284
O         2.05085308530436   -0.09510647195620    0.67740220987162
H         2.83117954480457   -1.69558963840158   -4.08492548253927
H         4.06667245355954   -0.46566020512430   -3.90758577399822
H         2.38426341518784    0.07955612474685   -3.95262600248674
H         3.56734582495545   -1.72905117113554   -1.78346297897716
H         1.82439894364409   -1.08808132879373   -1.91105034305244
H         5.02762510070876    1.35829309183062   -1.18099687821791
H         1.40346228913911    1.18069230934701   -1.60248888762441
H         3.82365904618874    2.32794627867542   -2.98625678755574
H         2.82236821114101    4.64379454897854   -2.50258621035120
H         2.40779465638930    4.67343166756733   -0.01565164656192
H         0.20382312377534    3.79344850416689   -1.86634486511017
H         0.47161458320203    5.27200503314936   -0.85191191137537
H         0.01108234187350    3.67479479948192   -0.09754912450259
H         1.74407181150384    2.14177093712148    0.65350089243519
H         5.92889155033460    2.80807192921381    1.37658211585544
H         0.35466382722677    2.80658250207684   -5.50255518826252
H         4.37127471263011   -1.16608882770674    1.77674370857370
H         5.07558205597369    0.20409260792906    1.01115811790702
H         4.85920064832092   -1.34095342261895    0.06685643669326
