36
 energy: -50.522354116673 gnorm: 0.296354526917 xtb: 6.4.1 (79825abcba525fcdf90b791dcacef51065a7a4e7)
C         3.20885036622993   -0.46273279593375   -3.75347236983012
C         2.99349752670654   -0.81387357381738   -2.28862934247058
C         3.39079998987850    0.34469828890022   -1.29566253222364
O         4.79393713831415    0.62206200682696   -1.44186146397979
C         2.52338844666560    1.66446431138970   -1.36785149197238
C         2.82569558586636    2.58763888804883   -2.62564464951340
N         2.76571670280829    3.96845066042216   -2.13398672731615
C         2.15870838134097    3.98781773334222   -0.79482469675711
C         0.63822566378017    4.15659800888746   -0.78236472711064
C         2.62976999489515    2.65226526918230   -0.19454693502939
C         3.97680142281240    2.78080922001981    0.49782892507479
C         5.15240164959667    2.90822258106786    1.04717382784053
C         1.81510532183801    2.32582822872275   -3.73043781796600
C         0.79611512553916    2.66604992307881   -4.46932417600679
C         3.07446198969157   -0.24832635132882    0.11577044259913
C         4.16617647789044   -0.94687692113462    0.87630596461251
O         1.90733977519806   -0.28712604226255    0.53970656880078
H         3.04459793723269   -1.33886401136003   -4.40356175315148
H         4.27484913037646   -0.25102100476183   -3.88402268635090
H         2.56990841558786    0.36742930096840   -4.04341951586947
H         3.60706707718284   -1.68920691902301   -2.02547518005257
H         1.92702309759465   -1.02685761672663   -2.14327708448500
H         5.07628926713306    1.36814903326358   -0.88601240239273
H         1.50642969807199    1.25825517584938   -1.49473381685236
H         3.84654163515867    2.48316071656573   -2.99127663631812
H         2.34390431460276    4.59693117565429   -2.81519618788081
H         2.53962545001477    4.81753793156195   -0.18747559113989
H         0.10847672050291    3.38161668653658   -1.34596633038532
H         0.33460338586569    5.12031189110744   -1.20666471401191
H         0.28539480007390    4.14920786801589    0.25542331573247
H         1.95313188092922    2.29456859677831    0.58875879900734
H         6.00358639095881    3.09294753104172    1.66166584228984
H         0.07726138152571    2.44472999238318   -5.22432655959830
H         3.71434327380614   -1.66769956266613    1.55552351476061
H         4.65833462154430   -0.11191095373556    1.38523027171500
H         4.76947901452878   -1.49650459933482    0.14841459902849
