36
 energy: -50.516612040090 gnorm: 0.307805328344 xtb: 6.4.1 (79825abcba525fcdf90b791dcacef51065a7a4e7)
C         3.49730572151310   -0.23334133915077   -3.78628397544428
C         3.38731947886002   -0.72943995400793   -2.35197892687320
C         3.48846318300471    0.45846992982817   -1.32010629171947
O         4.83382986273952    0.95405716462446   -1.42725278655263
C         2.37941604588533    1.57078321806557   -1.49946608426534
C         2.74893292952005    2.64495638228315   -2.61090378947670
N         2.99360589143681    3.91843685960692   -1.92508405028891
C         2.18314881086374    3.87664087468373   -0.69886973535771
C         0.71482464616275    4.22176189364598   -0.95465355584294
C         2.30087502154424    2.41966146955667   -0.22003324500701
C         3.47229222811744    2.15710966594904    0.71230246439662
C         4.47123668182388    2.46197274751774    1.49282690900762
C         1.66378045620438    2.77649940459312   -3.66709786118943
C         0.53623238576632    3.04682625728394   -4.26342290330334
C         3.22473749525678   -0.37321889900192   -0.02294269544890
C         4.37612567676636   -1.00585640812637    0.70664808525427
O         2.07457561806127   -0.60004087516267    0.38825183102807
H         3.40218180752672   -1.06960603442264   -4.49959580967754
H         4.52138191377301    0.13826492933821   -3.89303305509089
H         2.72582918235975    0.49211573732965   -4.03127631955389
H         4.11896992611397   -1.53205399741809   -2.17191093535328
H         2.40710344032377   -1.21319811985838   -2.25704874959103
H         4.81374599445788    1.90112761393471   -1.20818440672756
H         1.38684194070963    1.12668594152607   -1.68080640901533
H         3.66713520159073    2.38911884650050   -3.13833228772623
H         2.67494759876882    4.70780703235891   -2.48393232837730
H         2.66843150700887    4.51361848379053    0.05024079658023
H         0.15090998120055    3.39711213514368   -1.40279392251140
H         0.59495491229045    5.01834473326408   -1.69765318003972
H         0.23315875655012    4.50584794906328   -0.01186973204395
H         1.45278747349144    2.15586984778373    0.42068152594474
H         5.38213238434650    2.61489403197115    2.02492025178494
H        -0.32845823672249    3.12048278667115   -4.88200727362885
H         5.29724362977826   -0.45885756517032    0.51323407762897
H         4.35366738007406   -2.07657303345123    0.47981493140896
H         4.20975655311035   -0.90930234765932    1.78316515283733
