36
 energy: -50.516149837688 gnorm: 0.305283826799 xtb: 6.4.1 (79825abcba525fcdf90b791dcacef51065a7a4e7)
C         3.47385101875922   -0.10311731331657   -3.83965631963389
C         3.07580387768117   -0.55481264581063   -2.44216872330568
C         3.41584559184425    0.41759154115999   -1.24846741252188
O         4.80738536831337    0.72832192968021   -1.43329779780937
C         2.45229049590209    1.66424735119272   -1.37811006112016
C         2.87012107695412    2.75076226888383   -2.46004695738467
N         2.72407499609897    4.07007593900197   -1.83550865026095
C         1.92051022671134    3.98061365060368   -0.60731107082644
C         0.40264822488382    4.10611883567626   -0.75171719004005
C         2.33685881751502    2.57414968786644   -0.14422812493041
C         3.64098716926717    2.70586473385190    0.62538345950263
C         4.87358209464474    2.64036711430239    1.04546647751028
C         2.06452289204523    2.72633214915320   -3.74877506915426
C         1.07806998627991    2.33304461736603   -4.50526725502387
C         3.17689953632325   -0.46992835228643    0.01608949124735
C         4.31937823716491   -1.20107906878336    0.66291923466479
O         2.01741765419154   -0.54150877194013    0.45640699538193
H         3.37404469574627   -1.00132080020632   -4.47248344340983
H         4.50951834157736    0.24990306130122   -3.80821680456811
H         2.77425693033563    0.65706036244999   -4.17756648996270
H         3.59937002171970   -1.49933012487680   -2.22841326721541
H         1.99226647399377   -0.72742434947016   -2.44518245072119
H         5.03825184380716    1.52845691333229   -0.93147967212640
H         1.44789989490424    1.25615416118112   -1.57803390267455
H         3.93070652766717    2.57873841135850   -2.63975611474880
H         2.37425988187393    4.81108643335852   -2.44006849705901
H         2.25129682842718    4.72422230172867    0.12755814176653
H        -0.00589161610822    3.43366012160986   -1.51314429678812
H         0.15628278216082    5.12832048804746   -1.06053633866407
H        -0.03889093969157    3.89633747021242    0.22939605580319
H         1.67938844869377    2.10226012165728    0.59361120777772
H         5.84527345028918    2.77749622363324    1.46170047986035
H         0.47217324803371    2.15548377662449   -5.36382598357357
H         4.77328356464036   -1.90381493435125   -0.03364896267687
H         3.87636458066614   -1.65389764168618    1.55571595823299
H         4.98927563519501   -0.38662859335835    0.95239854534499
