36
 energy: -50.517619558705 gnorm: 0.296715812671 xtb: 6.4.1 (79825abcba525fcdf90b791dcacef51065a7a4e7)
C         3.36521137107131   -0.24302238659354   -3.82255974726681
C         3.34984453176640   -0.75176911263739   -2.38855054000120
C         3.46317273997830    0.38678186264937   -1.30366369466840
O         4.80454256085272    0.89267874855092   -1.41272304519326
C         2.40326928405834    1.54934042939391   -1.46005614096548
C         2.83255895685798    2.61210450017930   -2.56093188432125
N         2.79527756499804    3.89218345813297   -1.84540825538014
C         1.99240712035664    3.82795652099690   -0.61517938492965
C         0.54842784883445    4.29374376677473   -0.81133195801724
C         2.19380082520043    2.36778805250169   -0.17554151266145
C         3.43889133651880    2.20951134164160    0.68183806032811
C         4.58930767771758    2.58316024607428    1.16864263832825
C         1.81740119690786    2.68036551131394   -3.69017965552899
C         0.91150266725696    2.94421513597604   -4.59005522528701
C         3.23744903080885   -0.36013170695490    0.05098012272144
C         4.48756120197754   -0.84860469192972    0.72688053972868
O         2.11112223046696   -0.57161656444334    0.53062956130909
H         3.37834481633187   -1.08909009549539   -4.53051307636712
H         4.26098877438956    0.32597464327179   -4.09096960639877
H         2.54912755596364    0.46406388281538   -3.94714499553343
H         4.20671323775041   -1.43685076266069   -2.29708842878899
H         2.38292624220394   -1.25167317435275   -2.25062978659036
H         4.84886578498794    1.71408885360953   -0.89440109321238
H         1.47326605284287    1.00935240027264   -1.70257828800357
H         3.79601610035283    2.41627822864046   -3.03011359206924
H         2.58436214603652    4.64729450004148   -2.49524036759640
H         2.43391543380172    4.51736388446667    0.11433706765664
H         0.01454372774922    3.66932116595539   -1.53516959250021
H         0.56834635240773    5.32209616613294   -1.18955941725114
H         0.02088623955467    4.25708717868206    0.14882657006598
H         1.32960843167841    1.99586611810207    0.38499350905763
H         5.27809437659092    2.29713128003292    1.93021966375353
H         0.32844176198723    3.29082597151584   -5.41204226076654
H         4.47874053507460   -0.75049319933524    1.81102597531983
H         5.40820432932565   -0.32138102921204    0.45698577826418
H         4.49793017510630   -1.90754622269245    0.45406981613469
