36
 energy: -50.519686042946 gnorm: 0.307961044279 xtb: 6.4.1 (79825abcba525fcdf90b791dcacef51065a7a4e7)
C         3.28658210071539   -0.27047370290422   -3.86459115116861
C         3.13145598561319   -0.75412902551507   -2.43020794119165
C         3.47992034094076    0.36796169836043   -1.37872990180762
O         4.82039066906476    0.85106312992271   -1.57069575603913
C         2.44768552807127    1.55649587805890   -1.52458642927541
C         2.90487348084649    2.69215923762698   -2.53796315916281
N         2.94265707832457    3.91385031733462   -1.72678536571396
C         2.01248723084608    3.76047983662017   -0.59831264563277
C         0.57081195711663    4.01004214288146   -1.04530346663984
C         2.22384365621362    2.29179413993710   -0.19306751309370
C         3.40477434893374    2.30442553701428    0.76382574647190
C         4.29927441233598    2.65888117089595    1.64375798419100
C         1.84634175072479    2.91297773587727   -3.60621179470656
C         0.80291439795339    3.11147743952538   -4.36245384850439
C         3.36417290761854   -0.35005924556504    0.00508344726780
C         4.64006112745339   -0.85422855872177    0.61839431019749
O         2.24347904478746   -0.48837744382591    0.52307459269478
H         3.29295281484023   -1.15433398416731   -4.52485730118271
H         4.21471803635704    0.30505963606821   -3.93904712038862
H         2.47483649705924    0.33886440588782   -4.25351455077819
H         3.74404869640138   -1.63827314864401   -2.19580336828182
H         2.08541033212032   -1.01957498906777   -2.23225815977152
H         4.99967560536229    1.50890167152538   -0.87755643506536
H         1.50961260646076    1.11699993079367   -1.90164420358869
H         3.85623780046006    2.42065269222694   -2.99394473598006
H         2.72215247256956    4.73694210454892   -2.28433124242511
H         2.24162361410414    4.45059208719169    0.22244794964579
H         0.23883232221052    3.09905666423137   -1.55399958725435
H         0.46700948161920    4.88771225248734   -1.69328621304232
H        -0.00897992376477    4.18027949033469   -0.13074954458170
H         1.39006195659598    1.83128071549299    0.34738542322325
H         5.01553845367601    2.77928410679408    2.42395550190056
H         0.19596129998274    3.22733436017997   -5.23075500246958
H         5.27641409415494    0.01283730418282    0.78669965530166
H         5.18972144139045   -1.33447423711385   -0.19746681331079
H         4.47201992966449   -1.38138404799384    1.56166500769103
