36
 energy: -50.509155280768 gnorm: 0.300193300180 xtb: 6.4.1 (79825abcba525fcdf90b791dcacef51065a7a4e7)
C         3.36020876110553   -0.24871752265521   -3.80574673942770
C         3.05357351424538   -0.67287023850280   -2.37693217280858
C         3.37903937774567    0.44239153766552   -1.31091895265818
O         4.72400286705829    0.88938416071682   -1.55251650804540
C         2.41120343914332    1.68207678730273   -1.47176167222469
C         2.96294597104033    2.74267796110782   -2.51884801946279
N         2.84699835191972    4.00425000136290   -1.77928177384797
C         1.96197418017374    3.88311309841342   -0.61127185469704
C         0.47082403964234    4.15098342349304   -0.82393698947461
C         2.15687750296584    2.42818594439828   -0.15178031876400
C         3.38179496120756    2.26941357166937    0.73409219245118
C         4.53121929097317    2.42767439358259    1.32892588239776
C         2.06624199523351    2.59599561784972   -3.73737650598323
C         1.07038386535750    3.02157783051513   -4.46345584424418
C         3.28704399848501   -0.25421253745633    0.08556610037271
C         4.56830301281404   -0.76740397250069    0.67990398566248
O         2.16030221156733   -0.61358096232681    0.46597213401791
H         3.50071941735154   -1.12782950199158   -4.45737535454982
H         4.22197384153005    0.41648301687016   -3.92014872458350
H         2.50058888904293    0.30604456493782   -4.17286793070474
H         3.66034420359561   -1.54293400576905   -2.08240792831763
H         1.96866872400576   -0.78858367380355   -2.26096157481790
H         5.36167453281656    0.15861200342854   -1.62095368907253
H         1.50071810903469    1.32736713903939   -1.98216111056935
H         3.99581548163740    2.47958282904024   -2.74399375105446
H         2.58430371230176    4.79906643621566   -2.35912496747199
H         2.35621026603110    4.51872027233370    0.19059333002034
H         0.08601229344739    3.37842789251788   -1.49769854274990
H         0.25900733942829    5.10996999669946   -1.31018779578388
H        -0.02355399231070    4.10319966753656    0.15323000012622
H         1.33862132929319    1.94858103216834    0.39575037649688
H         5.32633449541604    2.23308498274403    2.01168937111862
H         0.30369380065776    3.07653964957840   -5.20164778346944
H         5.39586460241889   -0.06985282406853    0.56311701427561
H         4.86931660472128   -1.61117270284784    0.05074829171286
H         4.48476607668764   -1.10653405730702    1.71619676281294
