36
 energy: -50.517608920002 gnorm: 0.307825159722 xtb: 6.4.1 (79825abcba525fcdf90b791dcacef51065a7a4e7)
C         3.16223236171750   -0.52203209576207   -3.71685811511203
C         2.95503108377454   -0.79483221549229   -2.23426258578487
C         3.39989150683261    0.35751150710238   -1.25430124630234
O         4.76323584227349    0.79988084038217   -1.36699640233437
C         2.41310110083167    1.58712963770516   -1.37126411775536
C         2.64287736279740    2.50502310432027   -2.64811921405860
N         3.02217628495863    3.81953872580859   -2.11882996863032
C         2.27903532391104    3.97068646101326   -0.85903434780298
C         0.79655765686925    4.33326709593969   -0.96535924921910
C         2.49028330100197    2.59210578808163   -0.21032604554183
C         3.83230206874173    2.63409118102515    0.50215163168684
C         4.96407352866793    2.83076485130269    1.11896825643608
C         1.45789793671800    2.55311990260521   -3.59886408399133
C         0.56087054748910    2.38343395883610   -4.52977403699797
C         3.21214969556908   -0.25128254896963    0.17328895799378
C         4.43289887709709   -0.83703930664974    0.82512340468682
O         2.07521317365118   -0.22825708875189    0.67353558052019
H         2.70523790445262   -1.34072365602037   -4.29832278972606
H         4.22366082659771   -0.46328072429255   -3.97788784575233
H         2.64730676365426    0.40377186811422   -3.96021776404656
H         3.47124208608913   -1.72025960179513   -1.93587270747526
H         1.89304965818771   -0.89166130600026   -1.97604413505739
H         4.86510149316184    1.73007459179946   -1.10298934553387
H         1.42215863258745    1.10520240206610   -1.33826050884523
H         3.49004462998541    2.20432774525451   -3.26343945272844
H         2.78984086198277    4.59829829707042   -2.73243697253738
H         2.77028190865347    4.74814660735891   -0.26184185385716
H         0.26089542544890    3.54628618278781   -1.50628787627396
H         0.69698080367447    5.22786721034333   -1.59044844433734
H         0.50477828965199    4.42946918354350    0.08685661145082
H         1.72022616993134    2.34151307973107    0.52694543091677
H         5.87492817258859    2.66822213397453    1.64827242743157
H        -0.25081776196887    2.32812705358424   -5.21815256942678
H         4.22430927499410   -1.05682778846223    1.87071338269754
H         5.20869666540226   -0.06476090233738    0.81437124140584
H         4.93062126065841   -1.64367975544286    0.27969331457552
