36
 energy: -50.513552334930 gnorm: 0.293746874768 xtb: 6.4.1 (79825abcba525fcdf90b791dcacef51065a7a4e7)
C         2.94642104426183   -0.63443600195765   -3.49824616947602
C         2.66891720397906   -0.86918362992977   -2.02063764517169
C         3.25963974106286    0.30908431402381   -1.15527494236200
O         4.63570287626883    0.52772763828697   -1.50987886578915
C         2.42461320820707    1.62376772058740   -1.42681604272188
C         2.69436068605952    2.40931490545025   -2.78174644974365
N         2.85922658094958    3.80706763472472   -2.36813717430781
C         2.38348642357790    4.01314483872034   -0.99213114087377
C         0.95078130053187    4.53643536133770   -0.87367110554562
C         2.62702245744242    2.65766278217710   -0.30708265773728
C         4.02091829343246    2.67898229081148    0.29872380798540
C         4.96432655350023    2.85910150210308    1.18053323141451
C         1.57079526071580    2.09488032938957   -3.75598308028426
C         0.67364158655248    2.38721340398978   -4.65581722130355
C         3.22689243519717   -0.14209588351879    0.34113909964059
C         4.52771259724346   -0.58527745913281    0.94915608986193
O         2.09464441558642   -0.21274296625061    0.84752324727644
H         2.53853578071862   -1.48387522180997   -4.07207854612966
H         4.01049646516256   -0.60011392665870   -3.75277342488587
H         2.38719751034815    0.23942177827084   -3.82247893916384
H         3.16273654474544   -1.79639409808206   -1.69147298779607
H         1.60770920020037   -0.98336048866550   -1.76635748373909
H         4.96793523834949    1.32849350162915   -1.06972838777057
H         1.36474933775560    1.33896007752871   -1.53113888620495
H         3.63266919309410    2.04243665471705   -3.19612136540831
H         2.50018969040446    4.49209165912568   -3.03055272715994
H         3.01622406494083    4.77764974802266   -0.52567463045483
H         0.24161884918041    3.80039144162892   -1.26636020021491
H         0.75425709395813    5.46518222367851   -1.42118266952784
H         0.61748478361938    4.76438418228412    0.14539759548711
H         1.91723494817570    2.49047963898925    0.50998857913185
H         6.01442654747177    2.95515497231529    1.33642733555353
H         0.01154797556242    2.47017900282231   -5.48678686296011
H         4.89396276745090   -1.49008264816350    0.46721897964320
H         4.43261636126396   -0.67505891622105    2.03602670674001
H         5.35804581597727    0.09442843590006    0.73835522269662
