36
 energy: -50.519819797337 gnorm: 0.300950220230 xtb: 6.4.1 (79825abcba525fcdf90b791dcacef51065a7a4e7)
C         2.91648704206587   -0.66314055077262   -3.57871573222780
C         2.88452058609577   -0.80074746522738   -2.06363017437055
C         3.39063928968718    0.38289073832707   -1.15315473976611
O         4.72556722700740    0.64007540236704   -1.62104577499813
C         2.40366870832716    1.60188882402671   -1.35147033604468
C         2.67928490800463    2.45110764560720   -2.66621273101814
N         2.87893413788866    3.82790671285885   -2.20088424163624
C         2.23863611513022    3.93921164264983   -0.88186234128407
C         0.75519929209015    4.30657582265062   -0.95234972467827
C         2.56279077734156    2.60187084336773   -0.19456606901911
C         4.01144594876100    2.60585672072586    0.26563376634519
C         5.17665166249321    2.63187890226965    0.85015785226287
C         1.54383163781537    2.43288334878319   -3.67656864528275
C         0.72531390337016    2.63176748587443   -4.67181665495466
C         3.21626125305298   -0.06866407612109    0.33331136141905
C         4.42521582904333   -0.61956504084142    1.03556816622690
O         2.10398438184553   -0.11755957142247    0.88453806159872
H         2.71062600537479   -1.67318249757638   -3.97195544422239
H         3.92456971089528   -0.41821750962095   -3.92800166609817
H         2.19623008450693    0.03548049978872   -3.99661979626525
H         3.51557553684480   -1.69154940673040   -1.92161711119530
H         1.87620395045635   -1.08509580044034   -1.73759219505731
H         5.02811844483396    1.45924215912990   -1.19353514794865
H         1.40822520138616    1.13237651330462   -1.41440264524873
H         3.58964670210748    2.10726795317388   -3.15585007818891
H         2.55069565072862    4.55132837258759   -2.83797165091326
H         2.72645688957018    4.74408402352981   -0.31917441741189
H         0.14863200770073    3.51068927811683   -1.39677913088817
H         0.58355999339839    5.17544804951136   -1.59776619213865
H         0.35590007185307    4.52809310636827    0.04416343457846
H         1.92370917806275    2.39064428239790    0.66932741818837
H         6.24023536191287    2.63679660800400    0.92090213637666
H         0.05309733269762    2.94188018513362   -5.43844352308642
H         5.08011010427393    0.10419400264291    1.51760688399355
H         5.03456291669103   -1.12193851242849    0.27747267931683
H         4.04644227333151   -1.28615541734200    1.81536187642802
