36
 energy: -50.516738920848 gnorm: 0.315762040418 xtb: 6.4.1 (79825abcba525fcdf90b791dcacef51065a7a4e7)
C         3.39294441899200   -0.58536033020579   -3.69058861686155
C         2.88353271685079   -0.74698019997507   -2.26587092870703
C         3.24921673114155    0.37120151270384   -1.21607767009893
O         4.61478868824096    0.70114582170486   -1.52177124774505
C         2.37215655859214    1.68463916871465   -1.28709374647735
C         2.74367258646787    2.53825605995958   -2.57511490254408
N         2.88096325314918    3.90034390730737   -2.04801523877666
C         2.17445491818355    3.97181542236376   -0.76041013285942
C         0.69259036472318    4.28884381528237   -0.97036287681808
C         2.47481238267284    2.62708334339160   -0.07673343581027
C         3.88808923103678    2.62588219158534    0.48277406400333
C         5.13380655512180    2.58134888837642    0.86520706889432
C         1.63141994168251    2.52934078306321   -3.61107817914725
C         0.74622768583037    2.50797778573370   -4.56816911828201
C         3.16299156678112   -0.22323238114786    0.22721872420180
C         4.36742428828690   -0.90750019912334    0.80975372344262
O         2.10648847505221   -0.02314293264028    0.84944610447254
H         3.30008518155568   -1.60246253338417   -4.10781905885417
H         4.46859132432181   -0.38249968277497   -3.68352327605587
H         2.91719709429339    0.12976813809283   -4.35672750366251
H         3.26499699823359   -1.71231430122087   -1.89907230700088
H         1.79166823913443   -0.82473993693404   -2.34098789055426
H         4.70215544059431    1.65519614557567   -1.35596478229052
H         1.32994628475919    1.32533687928934   -1.28398459649957
H         3.67956779948308    2.26202735371719   -3.05939468647706
H         2.61477011760951    4.61600918934849   -2.72175419938748
H         2.59901107571449    4.86162008479273   -0.28040380201513
H         0.21842469257348    3.53514504688050   -1.60752991903748
H         0.59202147624383    5.28075242786152   -1.42529651478697
H         0.21837814742338    4.30784658024985    0.01772108660284
H         1.75502193541134    2.28790604142292    0.67573873338070
H         6.10709268905037    2.60385964266614    1.29931139640265
H         0.03138378336744    2.58985663664255   -5.35433437648816
H         5.30937922717585   -0.43737163441979    0.53267067185117
H         4.36794437384906   -1.92116372093868    0.39638011712375
H         4.20080349981089   -0.89700858219351    1.89050244852469
