36
 energy: -50.518723697432 gnorm: 0.312272068955 xtb: 6.4.1 (79825abcba525fcdf90b791dcacef51065a7a4e7)
C         3.15551507326137   -0.64494447939046   -3.67888044231137
C         2.91570127064910   -0.78999539329260   -2.18325637859951
C         3.33498914854968    0.40948317883933   -1.24967730239030
O         4.69514064672872    0.76693274153505   -1.54853562734943
C         2.37237550514383    1.66320416472768   -1.28058034155721
C         2.75963979107356    2.50058530145141   -2.57460649793957
N         3.05986913917956    3.82836929275457   -2.02796392526376
C         2.24228652223833    4.02031911778598   -0.82094153717188
C         0.78876595829943    4.39189569591962   -1.12047205885949
C         2.38851824616280    2.66282694270424   -0.11258845326325
C         3.73792790315926    2.52328909079693    0.57299475981614
C         4.94316977452584    2.73602276965318    1.02264609766754
C         1.60030856843028    2.47928799644035   -3.55741008058484
C         0.68250429138092    2.61202774757272   -4.47395809351953
C         3.20880306073293   -0.25235724855924    0.16097335178775
C         4.43532523995194   -0.82082707547812    0.81726068955475
O         2.07497936127148   -0.39143389845424    0.64934104088939
H         3.21290566967123   -1.64589130979310   -4.13932884500047
H         4.15557535588097   -0.21939041533465   -3.80927138701939
H         2.37409086672269   -0.08063666613838   -4.18129279038185
H         3.59522375353629   -1.57352555178635   -1.81412786873327
H         1.87036418847671   -1.00660671385477   -1.92986517598430
H         4.80990184814370    1.64128572241821   -1.13905609480480
H         1.37769526518807    1.19915073686944   -1.38341857968871
H         3.61885841710692    2.14983977522281   -3.14508874431181
H         3.06656431087737    4.58150025381848   -2.71331689740969
H         2.77451056749654    4.80227192433048   -0.26624006383059
H         0.19332315376199    3.64969405776523   -1.66219279029663
H         0.82888385179381    5.28291093639758   -1.75721675615283
H         0.22515347677640    4.57279467052157   -0.19788613755226
H         1.66081347853211    2.49819004943441    0.68909375818350
H         5.98900832371612    2.65198431978960    1.21079095203691
H        -0.22043217928743    2.57011496841037   -5.03850287833573
H         4.68906759736882    0.01290133038145    1.46963080495840
H         5.29004180515278   -0.89970945531247    0.13782790748636
H         4.17851659064616   -1.73022836677207    1.36765052903007
