36
 energy: -50.520192990250 gnorm: 0.303918621134 xtb: 6.4.1 (79825abcba525fcdf90b791dcacef51065a7a4e7)
C         2.94622192259218   -0.66172458062839   -3.55083008034590
C         3.12676351143914   -0.89428919347020   -2.05792679766955
C         3.37537742671339    0.42767716628283   -1.23529861145381
O         4.73860645547133    0.75197023650692   -1.55707370965189
C         2.40727616157117    1.65508679488164   -1.47118392811034
C         2.75640714483326    2.58035843133443   -2.71523554979770
N         3.08062344337503    3.87471212433355   -2.10572886006622
C         2.30715939010936    3.98369188677459   -0.85990949306980
C         0.83609475993314    4.34857598034018   -1.06808774616916
C         2.41664327888368    2.57915528583234   -0.24247686228503
C         3.74480631835378    2.33756491680096    0.45610645019209
C         4.78383023230482    2.53650249221869    1.21827643537151
C         1.58819699879270    2.64507237555697   -3.68554607181913
C         0.60758660482990    2.59570389557558   -4.54345679396468
C         3.24040960186936   -0.08013478820074    0.23704701857876
C         4.44253875775197   -0.74035513238617    0.85123124262462
O         2.11786454083787   -0.09337725982872    0.76913603192024
H         2.91631026577542   -1.63489240715119   -4.06972375475712
H         3.80129604512510   -0.07258363048955   -3.89721110767159
H         2.05407305211312   -0.08316010503418   -3.77626035571153
H         3.98396465968859   -1.54672641323228   -1.83108316728566
H         2.19167946143571   -1.30610308482937   -1.65807142154978
H         5.00545837482573    1.53210994649467   -1.04179821120306
H         1.40717961315098    1.25232834148133   -1.70118956108521
H         3.52670269048706    2.16875306580261   -3.36635371485938
H         3.04724153789472    4.60720712711106   -2.81233800891906
H         2.71611175581726    4.81343363255657   -0.27110311267145
H         0.29123630964467    3.51872499037722   -1.52998964665875
H         0.70095404363200    5.29845033131043   -1.59765088530816
H         0.31620621803690    4.45318614781591   -0.10875419025488
H         1.54761126778050    2.40478739447377    0.40074403595221
H         5.78974473675719    2.38541958517921    1.53694428915849
H        -0.23001916000467    2.74417052090950   -5.18543499482316
H         4.46513414160746   -0.56579778391654    1.92551899613011
H         5.36632450581742   -0.45057827755442    0.34030951721821
H         4.33430941642460   -1.82241670481027    0.73582096511172
