36
 energy: -50.522782496302 gnorm: 0.306999533567 xtb: 6.4.1 (79825abcba525fcdf90b791dcacef51065a7a4e7)
C         3.12837137412447   -0.55319034862744   -3.75076788339172
C         3.08958769201155   -0.80206309774846   -2.25010138097433
C         3.46136334738142    0.39437753955296   -1.29279592642507
O         4.83511142031991    0.77956612911101   -1.47040386443369
C         2.49419701945098    1.63903643672478   -1.41449176926626
C         2.77457953372593    2.54262003951463   -2.69144392976675
N         3.03506803386102    3.86946885143081   -2.12259941449196
C         2.26263892838092    3.95335269131500   -0.87419807344840
C         0.78376357085755    4.29118372258154   -1.07245952321925
C         2.46622905972065    2.58463461517382   -0.20256222088763
C         3.75997419172694    2.61313245037088    0.59481659106070
C         4.89132257035166    2.60786267686397    1.24294696169806
C         1.52248625873291    2.63497152497316   -3.54826304972318
C         0.47814677077216    2.61267341574322   -4.32858518758109
C         3.20578146768887   -0.19367601865598    0.13295366049624
C         4.29921001366901   -0.80483827086231    0.96308762292850
O         2.01562797600462   -0.24758069495629    0.48513324597418
H         2.79572427971742   -1.46681042510252   -4.27215568337604
H         4.16314199942239   -0.44082879658273   -4.08965320682086
H         2.51919847593492    0.27511204236267   -4.10334240803911
H         3.81220294607321   -1.58526623487695   -1.97379320127249
H         2.10639505818568   -1.19144279311488   -1.95757295706343
H         5.00394209426092    1.52046399787760   -0.86385353108700
H         1.48982362109036    1.21786028276775   -1.58523954853844
H         3.66304291669703    2.12143982258491   -3.16045258495524
H         2.83524963437605    4.59894857519559   -2.80442909709017
H         2.74115480307373    4.69414083522502   -0.22253723835677
H         0.39071064351642    3.56832529355914   -1.79485958641445
H         0.64153064307367    5.32297911284523   -1.41323728318698
H         0.24855227418647    4.17465806255392   -0.12297603550271
H         1.65256747688453    2.31238434383130    0.47801733468645
H         5.78660567141999    2.72633913834517    1.80922490254891
H        -0.37486214029665    2.67543680101979   -4.96435112797523
H         4.68800750973907   -1.70583764946323    0.49180042248463
H         3.96231215805101   -1.07025947675830    1.97028331591384
H         5.17354272440259   -0.14869031499222    0.99312992367832
