36
 energy: -50.517372127464 gnorm: 0.310956766485 xtb: 6.4.1 (79825abcba525fcdf90b791dcacef51065a7a4e7)
C         3.25860492353548   -0.79375756735482   -3.61544426191424
C         2.90212202047096   -0.82879251694989   -2.13654796255010
C         3.42953440070865    0.36780713064737   -1.25557887665413
O         4.80780506248049    0.73020635692463   -1.44567193024189
C         2.48757911050636    1.63278251333985   -1.36491257629777
C         2.65940305078636    2.46870798822352   -2.70558017965492
N         2.97163543375382    3.85705400798566   -2.34924835502344
C         2.40278599287285    4.07946350516887   -1.01166342201194
C         0.91968596817364    4.45457077250763   -0.99687890059171
C         2.58594747085110    2.73141903134320   -0.29391640622736
C         3.87043085815006    2.72506710483738    0.51877271665585
C         5.07615943776575    2.77699559528739    1.01230275882279
C         1.37929829627639    2.38853382157089   -3.52124512492267
C         0.31374818830062    2.29694193834284   -4.26707266031835
C         3.14557267705654   -0.13035040722431    0.19875801037615
C         4.31922704068314   -0.81810942376803    0.83731157996822
O         2.02560118042573   -0.04798691771028    0.73005981400617
H         2.92812725823507   -1.73292509771472   -4.09078606896762
H         4.34995809142611   -0.72955319274971   -3.67062298823934
H         2.88584334547467    0.06123702781379   -4.17358251926669
H         3.20570795403005   -1.81672528858818   -1.75740342662680
H         1.80971878074212   -0.78700465389960   -2.04292039161605
H         4.95019343857823    1.52867986091948   -0.90947945660779
H         1.47311158310428    1.20465534891997   -1.31131375227724
H         3.48590520339823    2.07426552534911   -3.29552798258700
H         2.46433506860501    4.51380998180482   -2.93939893513024
H         2.93114817566474    4.87246206536381   -0.46908343880890
H         0.38091169197905    3.85287450442057   -1.73617629776192
H         0.89386395681255    5.50312996743681   -1.31439780515701
H         0.48326524571676    4.42147621823546    0.00810366481210
H         1.80141875790392    2.53909492488472    0.44559698023116
H         6.03633216713447    2.74792874637260    1.47432293691053
H        -0.69632828406620    2.26541410023564   -4.60547079887600
H         4.54703385466097   -0.46415778523488    1.84125246119050
H         5.19745858140352   -0.62561108480772    0.21277535105245
H         4.06458995613406   -1.88069274236370    0.79296047092799
