36
 energy: -50.515298218213 gnorm: 0.305362286644 xtb: 6.4.1 (79825abcba525fcdf90b791dcacef51065a7a4e7)
C         3.47219351738289   -0.34383544661426   -3.76234619575746
C         3.01222189445671   -0.72958865407202   -2.36411075519261
C         3.32427563034619    0.34546977506797   -1.25370861332465
O         4.73420246909919    0.60139622816629   -1.37078363266154
C         2.44547511083344    1.65733457623376   -1.33191826763313
C         2.77514480179161    2.61510967484014   -2.55652811400610
N         2.90940308595709    3.98723978876758   -2.05532977623916
C         2.20845424265361    3.99652526358810   -0.76274568305604
C         0.69583691640010    4.14836111183134   -0.93433951255455
C         2.56699691805705    2.63228464666886   -0.14937177785531
C         4.02655646414959    2.65115666481013    0.27457565051464
C         5.06711122557223    3.00081252232982    0.97816397707873
C         1.55488284749380    2.44141903425402   -3.44602108088936
C         0.60005835570211    2.56387763706496   -4.32542935482676
C         3.02371945284269   -0.39984731775935    0.08720875076000
C         4.18566190369187   -0.99077141359818    0.83482237069677
O         1.82882243565997   -0.46577089412655    0.42079037355757
H         3.66983055753449   -1.17630936886401   -4.45885731457832
H         4.43021537342987    0.14878088113826   -3.56807342486038
H         2.76636100742218    0.35453260076576   -4.20457668737899
H         3.57588205741715   -1.60912548552333   -2.01679482909821
H         1.93242840549637   -0.92201135517367   -2.33450149402185
H         4.97082299663615    1.30466470455406   -0.74248360073264
H         1.40150659255220    1.30324721961891   -1.32404691399758
H         3.71018155491918    2.36670665249388   -3.05725886764534
H         2.68919681546662    4.77719475934053   -2.65901853319902
H         2.60062157936747    4.86323028117612   -0.21737099056502
H         0.30019535040226    3.37744708500660   -1.60369448483232
H         0.39687519093655    5.05401750010625   -1.47412633128943
H         0.20189661644467    4.10729368225788    0.04335405025200
H         1.99111425923924    2.46598016963023    0.76717386408736
H         6.06508554312495    2.77844206285859    1.27955722699763
H        -0.30944267279718    2.51066664015315   -4.87836539403673
H         3.93371790477532   -1.86061736379759    1.43894755579824
H         4.46600604955354   -0.16805096054747    1.50035220924437
H         5.07347316214573   -1.10902651812175    0.20736937289990
