36
 energy: -50.503115153024 gnorm: 0.305310171012 xtb: 6.4.1 (79825abcba525fcdf90b791dcacef51065a7a4e7)
C         1.55488056887262   -1.10938547351839   -3.07289023632781
C         2.25887990881072   -0.97162004623679   -1.73093368397748
C         3.27378424156627    0.23128335299302   -1.63546817018479
O         4.24405168914489    0.22610946561828   -2.69643607938816
C         2.56234012219363    1.64079630341161   -1.55474126443546
C         3.49856112674148    2.81806722449069   -2.06777916686725
N         3.08416348248982    3.89474886808412   -1.16169013614272
C         1.77397473086189    3.68135663511567   -0.52918850273814
C         0.51756540517353    3.87596772216566   -1.38011262597115
C         1.93273891436168    2.17562146720158   -0.25810110888317
C         2.65857264962589    1.96670873122205    1.06096008788942
C         3.33725075095726    2.40782356295981    2.08314581930129
C         3.37626728642736    3.16775043907200   -3.54194714781634
C         2.90288722446393    3.74622281954581   -4.61027567307785
C         4.05252575105535   -0.05505719245992   -0.31052978827565
C         5.30643361718076    0.73555504463610   -0.06380112053562
O         3.53357216412582   -0.78406439334406    0.55123420470378
H         0.71461937209208   -1.80638219206123   -2.91364932298757
H         2.22772167311074   -1.63553492138471   -3.75748517966999
H         1.15098528829383   -0.20761817974366   -3.52584676355836
H         2.69961419212570   -1.95979905297839   -1.52800094119528
H         1.58849766293437   -0.80754830770147   -0.87798275255563
H         3.70566026644732    0.19830089201084   -3.50557025668529
H         1.67283583321799    1.51799796124902   -2.19428231922547
H         4.54301636003025    2.55278790988333   -1.90818835928932
H         3.21799246660194    4.78223280635291   -1.64275337166451
H         1.72767897372858    4.31172152096978    0.36686013967624
H         0.54367146846591    3.26572118786130   -2.28884493159205
H         0.47284747023613    4.93181029400858   -1.67021292921809
H        -0.39770924905027    3.56426599665664   -0.86371878843390
H         1.02492417720339    1.59936750345124   -0.05035680521136
H         3.98639147017229    2.26349323719517    2.91622703784442
H         2.64322062444506    4.02744080268119   -5.60488689633029
H         4.97571477467051    1.73140650630040    0.22599176349121
H         5.92958409516630    0.78649837133743   -0.96240003347098
H         5.82418399670891    0.37870445495255    0.83089579455181
