36
 energy: -50.508799921388 gnorm: 0.306731320510 xtb: 6.4.1 (79825abcba525fcdf90b791dcacef51065a7a4e7)
C         3.30405592627343   -0.14398158273654   -3.89085654272380
C         3.28838359112441   -0.62393192651054   -2.44695771659564
C         3.51046832474305    0.44098001997619   -1.30557172040640
O         4.83305308617760    0.98818790305415   -1.44133502320649
C         2.43353808647468    1.59500711956713   -1.39411022504201
C         2.66898528331078    2.67057271816698   -2.54015024788494
N         2.67721975411324    3.98761237255981   -1.89415890135984
C         2.04008548856003    3.91570057438187   -0.57087596220339
C         0.58629949887123    4.37154822069191   -0.70950833338306
C         2.33584487519120    2.47076804953737   -0.13426492584197
C         3.60179924638807    2.44124217254985    0.70650218776621
C         4.39307777974523    2.22353558981845    1.71968136664255
C         1.69248777130891    2.57965746809063   -3.70143933941730
C         1.03599757341138    2.65053176542803   -4.82573566882341
C         3.23830909614855   -0.29252512396312    0.04786484063455
C         4.50489568035659   -0.89664196809087    0.58547897212817
O         2.09054564864070   -0.51884627838871    0.46597882519618
H         3.23305525715388   -1.02278161442859   -4.55408378968539
H         4.27721594808099    0.33873096902527   -4.02564079978281
H         2.51023068699297    0.55711972333935   -4.13536362909286
H         4.14812391351985   -1.30672224893487   -2.36590142075882
H         2.36994133694222   -1.18128514616675   -2.22407120303194
H         5.49286335545880    0.27427029842246   -1.45890814737624
H         1.53431936662365    1.00044711308159   -1.62479216538687
H         3.66937776612162    2.43804871111401   -2.90329834340451
H         2.34121794343485    4.75365205735822   -2.47488753840787
H         2.57499653117732    4.61486502647133    0.08291727505029
H         0.03493278691614    3.86572712629813   -1.50889342630662
H         0.62332834717575    5.45127143320582   -0.89332362772634
H        -0.08139727920282    4.22196915527382    0.14685336788263
H         1.55733526914084    2.14822264633675    0.56519284686478
H         5.17412090285621    2.17236324715248    2.44327811576771
H         0.49842668902770    2.69339763879066   -5.74494283889538
H         5.30845117300380   -0.18380451073695    0.76221699682958
H         4.75462496517035   -1.68518814906411   -0.13161373968138
H         4.18954621703923   -1.36132673616026    1.52383559814278
