36
 energy: -50.499295435188 gnorm: 0.307298943694 xtb: 6.4.1 (79825abcba525fcdf90b791dcacef51065a7a4e7)
C         1.45451896061598   -1.09533644581643   -3.06714083291656
C         2.19714225115827   -1.01902824190964   -1.74119609445731
C         3.25636360622702    0.13580173919377   -1.56644243020410
O         4.21079816178783    0.09041048257077   -2.64072958680765
C         2.63373358633873    1.58663774612748   -1.64892305464764
C         3.56766990702350    2.83113951280779   -1.97243937950878
N         3.05934821383428    3.98458671507693   -1.22201634302656
C         1.76826990732059    3.63609030509358   -0.61057853208932
C         0.52020657397797    3.95524823307125   -1.43579721335489
C         1.93281919638798    2.12275609699618   -0.38995224795709
C         2.79919123785829    2.02130156230090    0.85484013631723
C         3.24069371623710    2.37043115071997    2.03094983844711
C         3.32106410529754    3.03525844661488   -3.45834869689156
C         2.77803253927345    3.78699539452596   -4.37489283590418
C         4.05717124208983    0.02223445298716   -0.22864554981753
C         5.37857128192150    0.71973845024335   -0.06859010047638
O         3.72268299581429   -0.83227093504993    0.60881467494844
H         0.73108060445947   -1.92695534058810   -3.01972855675079
H         2.14438945112335   -1.21995601306367   -3.90783536236073
H         0.96663900775302   -0.13727883901922   -3.22709094004923
H         2.69567071147556   -1.97004011184622   -1.49835469341582
H         1.47134785619705   -0.96092441341059   -0.92040159574033
H         3.87948539443632    0.61675854978005   -3.38807576730096
H         1.85193328866859    1.56768549386805   -2.42592960562633
H         4.62564663269241    2.65356309811975   -1.78301669787556
H         2.97846350393884    4.71152664671471   -1.93051883589584
H         1.67093337745734    4.11277976716735    0.37212138172909
H         0.50011691613135    3.55480777378742   -2.45467925073872
H         0.49051542448759    5.05007510189387   -1.39792925829565
H        -0.37219834831799    3.52632406140883   -0.96549330557435
H         1.04510818837468    1.54192118200555   -0.11800760051049
H         3.70004913439083    2.54210452165515    2.97739586794494
H         2.61795727197565    4.19823510671839   -5.34495449696212
H         5.34512445006824    1.80370715588129   -0.16329036582497
H         6.07120094245561    0.28269643058314   -0.79498542466265
H         5.60539032022257    0.57485659244452    0.99134043373490
