36
 energy: -50.521538409730 gnorm: 0.320358591709 xtb: 6.4.1 (79825abcba525fcdf90b791dcacef51065a7a4e7)
C         3.14767730342186   -0.54594432583464   -3.60264936753355
C         2.91136675980257   -0.87356754472453   -2.13559036009200
C         3.32961621940052    0.33044621518337   -1.20739893756157
O         4.68540607309038    0.65146228961477   -1.56219625388296
C         2.38918561825965    1.58296464831469   -1.42230398306352
C         2.77982488244568    2.50555481713461   -2.65596229099822
N         3.06956110189790    3.82586431788176   -2.08604840909166
C         2.29556251505655    3.94736478645635   -0.84172009832589
C         0.85509868959296    4.38744803623982   -1.10986264674290
C         2.40263387919821    2.54363421091150   -0.22203548396022
C         3.74777891010939    2.62702885627668    0.48083842857135
C         4.88810224301663    2.78830097071472    1.09215168529373
C         1.57924812728388    2.53665841866058   -3.58765610740676
C         0.55327839554207    2.74308546059078   -4.36535706439485
C         3.19765547960316   -0.25253136717306    0.23711289369610
C         4.49926359565089   -0.65876379953455    0.86879254667909
O         2.06306157315087   -0.50115748019402    0.67788858269126
H         2.98585985517139   -1.45990615693991   -4.19904676638898
H         4.22118325437927   -0.43289568046272   -3.78437335410345
H         2.50381876110729    0.25096045592506   -3.96579426158110
H         3.50648642273697   -1.74200882125547   -1.81376976089507
H         1.83464345211861   -1.02925430273311   -1.99316236088198
H         4.83531715202702    1.49912678552956   -1.11016934473275
H         1.37818084209336    1.16038628973498   -1.54316313536929
H         3.60309747809837    2.11836860560504   -3.25516019798789
H         2.97363334452726    4.53142314821557   -2.81402119163830
H         2.85162658300333    4.70174407365121   -0.27241262752551
H         0.27711375078761    3.68264765665057   -1.71654756892418
H         0.85298231622831    5.30605666001787   -1.70745375355225
H         0.33317214512276    4.51800984344222   -0.15482623373345
H         1.67074909127905    2.31095513583173    0.55870711510516
H         5.74817318802534    2.89385226470531    1.71293836206319
H        -0.24791473730618    2.78223496906390   -5.06701128423119
H         4.72845884808988    0.03419387114114    1.67647701501196
H         5.27251523198290   -0.56962609367299    0.09903406421497
H         4.38222260164167   -1.70314750598949    1.17120690792745
