36
 energy: -50.518644284767 gnorm: 0.305601203217 xtb: 6.4.1 (79825abcba525fcdf90b791dcacef51065a7a4e7)
C         3.07225399099232   -0.60250693800113   -3.71549060975244
C         2.84372654345137   -0.80844766080774   -2.22525391396340
C         3.35020736801062    0.35374775286467   -1.28775719584310
O         4.71436970960655    0.60508676285352   -1.66589528438048
C         2.34551345005430    1.57061565707751   -1.38377293740637
C         2.76576397497465    2.58448918572402   -2.53317907680119
N         3.02414677308510    3.88735251606776   -1.91048206533755
C         2.21277745148058    3.91126681255490   -0.68439190935188
C         0.73957766425635    4.26445543605927   -0.89758180306955
C         2.42706099564395    2.48479760365632   -0.15034974254350
C         3.86124880694277    2.52127569224586    0.35182187361137
C         4.86165812085242    3.04645891671407    1.00252438541229
C         1.70622294055669    2.64006093083237   -3.62161369824440
C         0.85178663184429    2.55455511577418   -4.60277227201619
C         3.21100557433137   -0.20121519194250    0.16707268062187
C         4.49343906472771   -0.64799016518091    0.81048868216447
O         2.07953887475951   -0.41367015793712    0.63402824630684
H         3.17394271444814   -1.60255855731173   -4.17019615897828
H         3.99543006603949   -0.04813445771128   -3.91205031805469
H         2.20189879273974   -0.09471081411381   -4.12305679641025
H         3.33126703996196   -1.76534064018957   -1.98320792811114
H         1.78145027150433   -0.99858217580288   -2.02707425349907
H         5.09674562321994    1.35330284881481   -1.17671423121003
H         1.30463401499248    1.21158510639980   -1.43833611774255
H         3.69983142603326    2.22792367754898   -2.96573902851527
H         2.91726112009295    4.72453235545072   -2.48027601423682
H         2.60971283500251    4.68344990567034   -0.01462930903379
H         0.27208347747308    3.77168369295408   -1.75636114556447
H         0.60979338135415    5.34287098486246   -1.04296874191136
H         0.16205989980629    3.93492994791189   -0.02612644417590
H         1.72097799467768    2.28010857413449    0.66137874472248
H         5.79960855844180    3.13734618095731    1.50074896733780
H        -0.00115588647802    2.51288462346638   -5.24035708626680
H         5.20740923325456    0.17235913199437    0.85895133837487
H         4.99144523949510   -1.40568746601236    0.19707495756661
H         4.31589775834473   -0.99427234291199    1.83247601450568
