36
 energy: -50.516217144353 gnorm: 0.308980131463 xtb: 6.4.1 (79825abcba525fcdf90b791dcacef51065a7a4e7)
C         3.43351581937872   -0.17923955172820   -3.92574485716980
C         3.25756672196560   -0.65562364880961   -2.49133143205523
C         3.40389468932958    0.42616003133401   -1.35359101941431
O         4.76940752246465    0.86925343272260   -1.43195891655185
C         2.35819400033397    1.61013545170639   -1.41768929073242
C         2.70703572156212    2.68833933240924   -2.53190216306835
N         2.97229467432134    3.93267013722744   -1.80166615445267
C         2.15761552800354    3.93247997917988   -0.57753912897948
C         0.71522763894893    4.31203558820440   -0.91807464746346
C         2.22431932843394    2.45860733724820   -0.14258758867473
C         3.38256839941651    2.27776415717020    0.82496415644200
C         4.41556327011639    2.42639147358548    1.60655318024629
C         1.59512246540929    2.76051840686561   -3.56575150662594
C         0.84539466264233    2.51068511864247   -4.60283219938385
C         3.27927192085340   -0.31969525671087    0.01464141583420
C         4.45829601943653   -1.11202984567892    0.50488190609917
O         2.19212549217507   -0.23074362546785    0.60928563147238
H         3.44602955863747   -1.09398793710590   -4.54241313871907
H         4.29437373355601    0.47017936894433   -4.11388667305032
H         2.53215917763181    0.35933575502363   -4.20677530243327
H         4.08991436239381   -1.33506615245854   -2.25157852743839
H         2.28179207346762   -1.15282571797240   -2.42416659432524
H         5.05804586632458    1.46971012206568   -0.72380891908518
H         1.39723313860798    1.11489023847695   -1.63355141236915
H         3.64266264884656    2.41161858734353   -3.01641940268369
H         2.88851024598653    4.69608158854299   -2.47035359903227
H         2.62699458028581    4.61503868710957    0.14093373840791
H         0.20930208056673    3.48905424158628   -1.43345585827520
H         0.77043774215739    5.20825561899868   -1.54632850987439
H         0.08001925252638    4.51429342614936   -0.04793079500270
H         1.35052276760405    2.17842715073568    0.45518539647392
H         5.33622904415742    2.55040484013148    2.12927148157241
H        -0.02387051086042    2.50616570667527   -5.21937045362649
H         5.30646105929832   -0.72417186155039   -0.05659583117166
H         4.28527957070019   -2.16906083653879    0.27873474732941
H         4.65662802236434   -1.00510642090729    1.57498571461429
