36
 energy: -50.518171443958 gnorm: 0.308011449683 xtb: 6.4.1 (79825abcba525fcdf90b791dcacef51065a7a4e7)
C         3.01869221559106   -0.50225234891800   -3.69417224217127
C         3.12099855732028   -0.84290991313538   -2.21466975232886
C         3.50025187492187    0.39914673557634   -1.32047554513334
O         4.86969601400664    0.76864263827728   -1.55540980641785
C         2.41969360808366    1.54555880400112   -1.45287470260755
C         2.85507857598602    2.55446884651684   -2.60101447885698
N         3.02293128915899    3.83671421637228   -1.90845518980275
C         2.09297331180346    3.90004091200697   -0.77119663972143
C         0.64815511753761    4.27104040054191   -1.11085746579747
C         2.31851566562166    2.47663634091257   -0.23362535632191
C         3.57673880497460    2.55387040374926    0.61567492854799
C         4.77047043695007    2.61920455023868    1.13604607421892
C         1.77080386505154    2.69035721560305   -3.65755981209324
C         0.73062661394085    2.80785056299744   -4.43490876197905
C         3.28168836370982   -0.20500565467889    0.10469842082536
C         4.46686787051200   -0.81039734584894    0.80260823582874
O         2.15898485900155   -0.19577899800838    0.63653787559840
H         2.68233579590116   -1.46831018406801   -4.10744889672464
H         4.02710853318616   -0.29157356240024   -4.06421225531164
H         2.34457005082346    0.30403954436757   -3.97154916527210
H         3.83948149141423   -1.65413763467411   -2.02071609574575
H         2.15235598224988   -1.11187752751648   -1.77507314588144
H         5.08737839623537    1.53641966547963   -1.00000943808528
H         1.50605825351811    1.01356995201697   -1.76523403609773
H         3.78397854699052    2.15011113029707   -3.00147514534577
H         3.02812503802281    4.66785824601186   -2.49678536480416
H         2.46027937034317    4.68837769352040   -0.10335105468078
H         0.22701804152708    3.54632244651154   -1.81534608025037
H         0.50615203692111    5.26874758411713   -1.54141165363414
H         0.05043208935355    4.21334981372311   -0.19382571640245
H         1.50366851306752    2.13145517283889    0.41153197587987
H         5.51276379753816    2.65833997831207    1.90005405373436
H        -0.14996943058992    2.97706234641296   -5.01082519614016
H         4.54147692516229   -0.26184556057161    1.73994458418379
H         5.33336323798853   -0.77681022232540    0.13443952295714
H         4.33144010376224   -1.85338563051324    1.10214975640878
