36
 energy: -50.517229303606 gnorm: 0.301594313038 xtb: 6.4.1 (79825abcba525fcdf90b791dcacef51065a7a4e7)
C         3.04265816503987   -0.70380267630861   -3.70008328382202
C         2.92912381983734   -0.85239063672685   -2.18995967037501
C         3.45500705567162    0.33277043839453   -1.29276343479707
O         4.81403268224577    0.66625779502204   -1.62281506774546
C         2.44348044610115    1.54418654342225   -1.38593668515852
C         2.77256475558237    2.42188717602008   -2.66930320140549
N         3.02393123480686    3.78993263210772   -2.20322099514552
C         2.29328592170656    3.94905089012335   -0.93711360744950
C         0.81076525481676    4.32098154717631   -1.00276245159476
C         2.48814512994212    2.58439577645924   -0.25470675915836
C         3.78744980212858    2.48617131767702    0.52795592007398
C         4.72073445122443    2.77407779921760    1.39174959599252
C         1.61532836222602    2.35369784956160   -3.65244080769267
C         0.64451930030757    2.92560912087325   -4.30855977987754
C         3.23041942944341   -0.14989403044003    0.17709585211527
C         4.45890602809952   -0.56348208719718    0.93735452179422
O         2.06943698518716   -0.20830374961093    0.61539888152086
H         2.72652720040404   -1.66940765427761   -4.13004747896850
H         4.06682154654754   -0.41903074570312   -3.96125935793762
H         2.35862461978618    0.05267536715201   -4.07601458378227
H         3.57891441403688   -1.72409887877556   -2.01726605997718
H         1.92458576549746   -1.04226490601703   -1.79157764825644
H         4.96895217543263    1.54215013849863   -1.23019654516336
H         1.40268340816074    1.20018486238692   -1.50304529047568
H         3.60160199502678    1.99149655563672   -3.22982996119798
H         2.80680272068074    4.50257161281087   -2.89745486136797
H         2.79220328324238    4.71265654978929   -0.32851340341465
H         0.24378028926062    3.65233647431733   -1.65874916779985
H         0.75928177049928    5.33423854643465   -1.41703424310550
H         0.46002432077398    4.38270050475313    0.03392449210582
H         1.67655407042967    2.24135170127019    0.39567360604128
H         5.68854040991105    2.83323398754088    1.83457165991782
H        -0.24351512046094    2.97842041331123   -4.89538823342750
H         4.44057896856591   -0.04110678234498    1.89226978152050
H         5.34371829661156   -0.41583394937725    0.30990012751033
H         4.38583493953283   -1.64798168014900    1.05740290827328
