36
 energy: -50.514260488848 gnorm: 0.308581801557 xtb: 6.4.1 (79825abcba525fcdf90b791dcacef51065a7a4e7)
C         3.40505146599525   -0.45394549196016   -3.75820097589678
C         2.92452513475289   -0.68362120235115   -2.33279391436087
C         3.37428248748742    0.34474004457959   -1.22540394214996
O         4.75787604046312    0.69419616297159   -1.40046934966205
C         2.47466971781701    1.64144242961768   -1.31844234341702
C         2.82480910565859    2.48940583981492   -2.61614993324392
N         2.93430987184361    3.86546826845792   -2.11973488487568
C         2.20443277974886    4.00876780651148   -0.85129734014855
C         0.71716308497133    4.31486926958156   -1.03795336980068
C         2.52054656179320    2.66523556572381   -0.17238201804416
C         3.83366990297723    2.74481283585165    0.58904828042238
C         4.99648884398715    2.85631231155224    1.16824589185454
C         1.64274352902311    2.40211667320359   -3.56773125514758
C         0.54353163138574    2.63941584588586   -4.22763061593490
C         3.11229012400460   -0.39355904186888    0.12743212222712
C         4.32427860114590   -1.00854580494327    0.76860517842636
O         1.96252428195805   -0.42609056291148    0.59688042199406
H         3.22537343180329   -1.45439243023046   -4.18717964958444
H         4.48219356987258   -0.31387830383606   -3.89371739384373
H         2.85143091398773    0.36519678396296   -4.20985957017632
H         3.24567258011126   -1.67590614664230   -1.98042893892096
H         1.83134340851572   -0.64267694673512   -2.41725969486022
H         4.90817374178753    1.59023055520084   -1.05424727814006
H         1.44955592032069    1.23759556530043   -1.35531356886859
H         3.66875682851133    2.07668805999728   -3.16764369342531
H         2.62374556874756    4.53831164580495   -2.81815551934891
H         2.64356621565743    4.86921401444053   -0.33245198529990
H         0.22286904882866    3.60430815197675   -1.70851512236779
H         0.63643517650905    5.28655275828795   -1.53822891131976
H         0.12081793050600    4.27479164726475   -0.11908749700056
H         1.81611971133312    2.55083788370106    0.65831040230382
H         5.68112101836121    2.91661288610722    1.98303533635678
H        -0.12006523357584    2.69791638915616   -5.05948318447933
H         4.17132172875642   -1.85936494713073    1.43025914892120
H         4.80648889784015   -0.17598634290959    1.29082134115308
H         5.06483439453982   -1.35984603481128    0.04468830988230
