36
 energy: -50.521594677740 gnorm: 0.305671716655 xtb: 6.4.1 (79825abcba525fcdf90b791dcacef51065a7a4e7)
C         3.19245705147501   -0.23963344449619   -3.89574039186611
C         3.17923228997333   -0.66118724406693   -2.43370097139141
C         3.46514336374512    0.39462958570874   -1.29808363229711
O         4.79767091722645    0.87789835323747   -1.53874978928277
C         2.38517175297847    1.54616676059550   -1.38186773542602
C         2.76182017163773    2.57974702605191   -2.52883429692671
N         2.86824095290850    3.88674640357228   -1.87126806948630
C         2.08610152091724    3.90095378571546   -0.62617964702117
C         0.63465423388549    4.33347874480046   -0.84235701130098
C         2.22898640776163    2.44678145345801   -0.14565957099369
C         3.39907353464091    2.41047864656794    0.82386596085415
C         4.42096572134870    2.66666147587353    1.59208246325226
C         1.72826622743698    2.55207083959333   -3.64301814965091
C         1.00830711476912    2.90429475695472   -4.67143538451269
C         3.34569695679839   -0.39028864770574    0.04858887920285
C         4.61951265857532   -1.00710199050876    0.55372502093776
O         2.23001086265346   -0.57917308180624    0.56139361523335
H         2.94454782067159   -1.12317098097578   -4.50819725217008
H         4.19314239918598    0.06766234360734   -4.21576658024213
H         2.45542766037815    0.54304835795177   -4.05599687219339
H         3.89871304907037   -1.47875078157856   -2.27287976331317
H         2.22015576958394   -1.14541162482466   -2.21108884651467
H         4.88744576094419    1.61355270646353   -0.90939304909923
H         1.39775329371543    1.11380698064780   -1.61290855810788
H         3.70851450448564    2.20412527519832   -2.91536659544332
H         2.50416558203947    4.63114722712726   -2.46310952919480
H         2.59012981737358    4.58418607378427    0.06776232987491
H         0.08365145575663    3.59480456312253   -1.43365486455562
H         0.72733854369950    5.30075622427388   -1.34905742749863
H         0.06557157834456    4.45806918403771    0.08617430449825
H         1.37324857581330    2.08463678025373    0.43392467883490
H         5.19487029735332    2.64244185327014    2.32469717813652
H         0.59275343527937    2.91685576223295   -5.65271982300273
H         5.13112376121683   -1.52840854117565   -0.25347294439113
H         4.44023955286706   -1.59118878488525    1.46207270384548
H         5.25370496133450   -0.16740471489067    0.85138082570910
