36
 energy: -50.522203039873 gnorm: 0.300440463771 xtb: 6.4.1 (79825abcba525fcdf90b791dcacef51065a7a4e7)
C         3.38732534904594   -0.29917035043779   -3.82701485061599
C         3.14597493100089   -0.72279372623218   -2.38557980949891
C         3.47593756134859    0.37704443116443   -1.30502359176489
O         4.84506163760772    0.78735561248728   -1.46072385057230
C         2.47731983160894    1.59675658910694   -1.42527833576430
C         2.83046872191973    2.63988746445160   -2.57107426054080
N         2.69622248489257    3.93585001805514   -1.89696366886139
C         2.01403721370218    3.87368258714085   -0.59583047820839
C         0.51683590109471    4.18622913746444   -0.63065292594119
C         2.35959266914146    2.44348676085785   -0.14742870647221
C         3.69639029494742    2.51981331409760    0.57197934460665
C         4.89909519959488    2.72552780621839    1.03157956956037
C         1.94170149086062    2.55602714549612   -3.80130416000953
C         0.91561957005460    2.68686519609661   -4.59508126474320
C         3.14167822026436   -0.24795692193437    0.08836613596443
C         4.29135652758601   -0.96155709340294    0.74200384233700
O         1.97356546955090   -0.28250124828119    0.50993555783071
H         3.21255521426590   -1.19270235734000   -4.45011750912473
H         4.42366914920720    0.03099709658769   -3.95030156154930
H         2.71597219403045    0.49088923068907   -4.15347474859820
H         3.79852155185827   -1.59028550519183   -2.20236659797754
H         2.10783656884469   -1.04752382690287   -2.24178731688473
H         5.02009897144074    1.59304115317002   -0.94538950227541
H         1.43820671192418    1.26572202650932   -1.58643076582925
H         3.84798954448091    2.45336781219321   -2.91252830236751
H         2.24072032796375    4.58559716723479   -2.53516912065338
H         2.52285028410408    4.52282652431972    0.12675360808946
H         0.00314144160544    3.89266233168266   -1.55196356311845
H         0.44642536517969    5.27498000989511   -0.52757378346939
H         0.03287391453283    3.72833159493014    0.23978310732334
H         1.58148464026151    2.02224815854437    0.49790829476450
H         5.87119794156110    2.65927782179398    1.46386005298295
H         0.29011442115452    2.76371582823655   -5.45449912808000
H         4.02373301106067   -1.09043677746456    1.78930641555625
H         5.24691542302874   -0.45557394919255    0.57088985613015
H         4.36118598375876   -1.99300920214271    0.38546385786327
