36
 energy: -50.519590687306 gnorm: 0.301602862790 xtb: 6.4.1 (79825abcba525fcdf90b791dcacef51065a7a4e7)
C         2.93625125179166   -0.48910765699778   -3.65152998484766
C         2.82203778460356   -0.78939893243304   -2.16417588819459
C         3.37476458939372    0.34726742296067   -1.22151808104303
O         4.74318966500648    0.56618964676248   -1.60438157589284
C         2.48294798110820    1.63723348353455   -1.42163562036818
C         2.89864399246009    2.59052671018286   -2.62334829016092
N         2.92622879550573    3.94986375383902   -2.07252347206476
C         2.12466627958314    3.98416560332398   -0.84024508127359
C         0.62485580545088    4.25627009165459   -0.97077247658043
C         2.50954726466026    2.62104808245721   -0.24048675307738
C         3.84828303412124    2.67991043678291    0.47695544321623
C         4.93607955525116    2.52353980979208    1.17859412411291
C         1.86324781660193    2.50485903184230   -3.73286223903583
C         0.78885030125024    2.46590730081105   -4.47055971647863
C         3.25195859139758   -0.18932684092494    0.24165525700492
C         4.48249460050032   -0.88219195331593    0.75541272155014
O         2.18739809255386    0.02048150032521    0.84671136427978
H         2.67777355372489   -1.37990864794088   -4.24891080581660
H         3.99055620410211   -0.23682666052234   -3.80323363649508
H         2.33667838777218    0.34716256696465   -4.00174386220223
H         3.28573888230234   -1.75809334137208   -1.92222838519888
H         1.74904880723349   -0.87408784343916   -1.95115094419767
H         5.17184605372260    1.30455269524570   -1.13918220225098
H         1.42380610902481    1.34662217292124   -1.51689120170906
H         3.83872824739683    2.18950292205936   -3.00037692761515
H         2.64579485358538    4.61429340336760   -2.79144614976388
H         2.43040870804360    4.84628886190066   -0.23553738235673
H         0.06002608145371    3.56547391755648   -1.60531544908075
H         0.45167989226754    5.25798007137519   -1.38009952233632
H         0.21271920149448    4.19779494157846    0.04326516026525
H         1.73806365168828    2.36577178210258    0.49368008888349
H         5.84172472744226    2.79799979519016    1.66922407408899
H         0.17618048126458    2.34082681881924   -5.33355007412892
H         5.07625422303896   -0.19604638259341    1.35685163268421
H         5.08568543241470   -1.13435973503381   -0.12263282141535
H         4.18605870628148   -1.71742580425548    1.39603783957996
