36
 energy: -50.519690646714 gnorm: 0.298102353226 xtb: 6.4.1 (79825abcba525fcdf90b791dcacef51065a7a4e7)
C         2.88164041882695   -0.37919596460303   -3.58775847354272
C         2.89296544089972   -0.83024550982968   -2.13453177510458
C         3.39685706660534    0.30017118597507   -1.15761191765008
O         4.78198409662523    0.60531118924790   -1.39300793236634
C         2.52613904444644    1.60009863219043   -1.38440503666157
C         2.92300185704605    2.48385798926280   -2.64422796750544
N         2.87398686969234    3.87780316538456   -2.18982670992796
C         2.17033204227761    3.93338771453507   -0.89987733990334
C         0.65396819583198    4.12209107909776   -0.97431833877443
C         2.55167652512715    2.60625803159442   -0.22220777697262
C         3.96638672335037    2.75877636058489    0.31233389380491
C         5.01984685454873    2.95630000888683    1.05480010642429
C         1.84119239552127    2.40888976298778   -3.70934462075133
C         0.93172280128971    2.88797915177313   -4.51145637804078
C         3.09645909768655   -0.31973839019237    0.24572842908831
C         4.32005506837511   -0.85093592961167    0.93773258170273
O         1.93359415826648   -0.44672196716583    0.66408449339254
H         2.71773266610862   -1.28547209062668   -4.19521119321442
H         3.87414811377834    0.02314207693714   -3.81418993874289
H         2.09072625139911    0.32408206328598   -3.83542773716355
H         3.58652648907360   -1.68145514674966   -2.05489891348293
H         1.87048669634331   -1.07961015532819   -1.82435170159876
H         5.06599972154046    1.43322081081520   -0.96964339174329
H         1.49038632314988    1.24785215856622   -1.52023139217723
H         3.88369403102086    2.28745480162712   -3.11880716651267
H         2.50505844160977    4.51731129541824   -2.89116895511308
H         2.65237407502935    4.76006567555021   -0.36448459673601
H         0.14125531070391    3.38226608798414   -1.59774535288617
H         0.56179520160684    5.09273021165800   -1.47464346530105
H         0.22123951086005    4.15753293536685    0.03217955771069
H         1.80080834098778    2.27421675898886    0.50256769136842
H         6.02443163688327    3.12208907611244    1.37033555512662
H         0.28540018421400    2.89698611091810   -5.35877435620738
H         5.00731784523875   -1.23402820805734    0.18541271614602
H         4.01619466879123   -1.56968954978714    1.70549155132697
H         4.94268204402471   -0.07867033936823    1.39798454781066
