36
 energy: -50.522894300384 gnorm: 0.303061581708 xtb: 6.4.1 (79825abcba525fcdf90b791dcacef51065a7a4e7)
C         3.49265318621765   -0.39999074670987   -3.73195981575358
C         2.95917726083633   -0.68474436413769   -2.33562153769394
C         3.29367092668142    0.39363459523126   -1.23501539604394
O         4.69616509134351    0.68826389980822   -1.35035092354391
C         2.41711092346876    1.70216517376216   -1.37207974225369
C         2.83177035652583    2.63808394520728   -2.58772694257480
N         2.96246289494620    3.99295258213795   -2.04072005017375
C         2.24754148381109    4.04956015204498   -0.75702534725125
C         0.73648043600977    4.26911593891688   -0.85189104550268
C         2.56383338132703    2.65992637113502   -0.17839746156454
C         3.97540829408125    2.60589245213147    0.38279609594431
C         5.13162580964663    2.98401772764312    0.85208520463584
C         1.73006448872566    2.50085465938255   -3.62590693443546
C         0.62361269332976    2.25012642472827   -4.26851459281842
C         2.94814220800445   -0.38319532200209    0.07686726908510
C         4.15269758213602   -0.86283323599486    0.83661821130144
O         1.78796449201564   -0.67575860860169    0.41122617843205
H         3.34574600710408   -1.23058365268165   -4.44311006379772
H         4.55496223058103   -0.13616797960187   -3.72120482683108
H         2.91313551260263    0.40901214730613   -4.16917698264945
H         3.33105617793109   -1.68752074473785   -2.07471588257465
H         1.86568262179914   -0.77220818274121   -2.31378718046350
H         4.93047266060075    1.29819024679045   -0.63033247377892
H         1.38819418673727    1.30658267970317   -1.38452618423662
H         3.76068011340742    2.32572270888374   -3.06342243456371
H         2.50433826486358    4.66211313256176   -2.65659808930917
H         2.63771412915950    4.84201976961062   -0.10727199460229
H         0.25737863781595    3.41039568244640   -1.33349020536736
H         0.57908138233669    5.18367333680769   -1.43479045402138
H         0.30482636323370    4.44758032755270    0.13976084827059
H         1.90375272902038    2.34192772844796    0.63555850938709
H         6.08147734971252    2.99104645350886    1.33579160218349
H        -0.07164451929918    2.06674027725858   -5.05512041291196
H         3.79493889817466   -1.42921210630735    1.69469670316714
H         4.63403831038238    0.03911217025785    1.22802252348545
H         4.84391962624248   -1.43218086675146    0.20896725177426
