36
 energy: -50.518316616350 gnorm: 0.294730540387 xtb: 6.4.1 (79825abcba525fcdf90b791dcacef51065a7a4e7)
C         3.00580389602835   -0.48253486731542   -3.66802951839048
C         2.79938968016811   -0.83681120469822   -2.20265474807724
C         3.28783655734574    0.33710783309400   -1.27020915755175
O         4.65992062033150    0.60608016830364   -1.60507896082678
C         2.42032661749061    1.65040102476016   -1.41881539415137
C         2.88854291688953    2.64839305412050   -2.56357295992391
N         2.89469919364963    3.95832306370585   -1.90326124136554
C         2.10737102534545    3.89531133794487   -0.66296570791387
C         0.62599937769907    4.11731156707121   -0.97403431259351
C         2.43459673733541    2.48973687653469   -0.13078470650899
C         3.81683410735712    2.64580687042059    0.48196616042487
C         5.10140225265391    2.46121177235936    0.60789977635732
C         1.83794992120079    2.61377492197060   -3.66150798203726
C         1.15003334476820    2.63629879533713   -4.76889601727395
C         3.20437222784866   -0.16894361841552    0.20655640924654
C         4.44526470183181   -0.66126010563971    0.89651147360399
O         2.16183843015784   -0.12741188552771    0.88094492512044
H         2.94517209725516   -1.39625881287919   -4.28336138518326
H         3.99721887252328   -0.04309823866080   -3.81706113218652
H         2.20525632298995    0.21035868592447   -3.91401199012574
H         3.40759792249766   -1.72198761539773   -1.96084570265757
H         1.75601408943401   -1.05586765240790   -1.94335024671015
H         4.85144987582175    1.41065035108914   -1.09388416261166
H         1.37609586587510    1.33338156843281   -1.57499114321458
H         3.88028224238993    2.35054663810713   -2.90190665145765
H         2.60360430489102    4.74250659273418   -2.48401913462773
H         2.44106564979010    4.71783432141529   -0.01914104339827
H         0.32207801278914    3.46732130406125   -1.80109006959826
H         0.31759509520773    5.10799635427690   -1.32672662211348
H         0.07112788119462    3.87060648779051   -0.06145418882686
H         1.72211193372445    2.15924500109090    0.63242852948230
H         5.97340920663599    2.68488907302455    1.17869884804427
H         0.30212159719686    2.63109536189723   -5.41448131249863
H         5.36004650922044   -0.70064525213972    0.30770077292407
H         4.29248667332713   -1.70204434485896    1.19952761477964
H         4.55597353269097   -0.04216807495114    1.79113931663599
