36
 energy: -50.503504650063 gnorm: 0.314026942978 xtb: 6.4.1 (79825abcba525fcdf90b791dcacef51065a7a4e7)
C         1.44282803069421   -0.67619109073310   -3.14096603200282
C         2.20549032562914   -0.82090047431158   -1.83220815006878
C         3.29541629173655    0.27784557859121   -1.53064626463781
O         4.25850412688939    0.24875297355523   -2.59775171414085
C         2.57213312709283    1.68349917059916   -1.51075254728064
C         3.40497739745838    2.94473230027076   -2.00202222335001
N         2.83335075269663    4.07850601011935   -1.26733436734178
C         1.64015135031206    3.72100213340906   -0.48589000418025
C         0.34594011425369    3.78692935771624   -1.29902013706891
C         1.98945065190727    2.24951467623201   -0.20544840255824
C         2.84610781094329    2.19774360746090    1.04908730424479
C         3.40317001312008    2.20722835143552    2.22791793196998
C         3.48524728399868    3.07114217333256   -3.51463012203717
C         3.25898276763496    3.07484280636039   -4.79870001242170
C         4.06413329203892   -0.14503745358715   -0.23676255691896
C         5.34388224680694    0.64156109509963   -0.19513309359538
O         3.68373608875754   -1.01003733651393    0.56975753260198
H         0.88948896821066   -1.62154778296149   -3.27256230795419
H         2.18107654656113   -0.68548216910204   -3.94912532084386
H         0.72294351261434    0.13776489821207   -3.11399944722622
H         2.71468063742067   -1.79508346453237   -1.77205089568781
H         1.57957272574165   -0.73371396052018   -0.93527846534516
H         3.78746777981565   -0.05457424316626   -3.39239258576494
H         1.70864592577931    1.58365853183944   -2.18878777923852
H         4.44985981645464    2.88074011163062   -1.70060090586343
H         2.64795808424795    4.85339922126923   -1.90147145473719
H         1.58287169489034    4.36720173124256    0.39816399543482
H         0.49575902306283    3.35403302578250   -2.29352092841438
H         0.06894047002320    4.82973618912686   -1.49081827399851
H        -0.51007638406932    3.29392570040693   -0.82390814716256
H         1.07753334445709    1.73772395488698    0.11986836861519
H         3.83993564208030    2.12126986250376    3.19646640320663
H         3.42468812499381    3.09388331534982   -5.85128776537558
H         5.17586129127446    1.44292208419374    0.52226813720889
H         5.54555559092718    1.06014727662893   -1.18634710567822
H         6.21398511001938    0.09048796251529    0.17246692867835
