36
 energy: -50.516929493986 gnorm: 0.307783258615 xtb: 6.4.1 (79825abcba525fcdf90b791dcacef51065a7a4e7)
C         3.13097141965511   -0.60275637784431   -3.71773389570281
C         3.00236873045865   -0.82609067082409   -2.21805896122337
C         3.42281509902032    0.36284050103266   -1.27159787918059
O         4.83368340219342    0.58288674076620   -1.43931451230524
C         2.58204499898301    1.68289372340671   -1.49511849375504
C         2.86188117106547    2.64184129413636   -2.73115884641763
N         2.95759319057720    3.94744799145898   -2.06919475410453
C         2.22533722088780    3.95399958517717   -0.79406833086005
C         0.71358258092702    4.09944999052401   -0.97832850115277
C         2.62723157577284    2.57500825186967   -0.24379871261916
C         3.99809230502380    2.59187733296049    0.41259892779953
C         5.11161466094540    2.90437038780857    1.01465038294158
C         1.63856731221504    2.61396948089197   -3.63289702370049
C         0.49153695484049    2.70417685140536   -4.24627194585412
C         3.08524195294472   -0.16682576806294    0.15997082889380
C         4.17601898990922   -0.68210440354079    1.05602945282781
O         1.89730323901955   -0.40279020641924    0.43660035771509
H         2.78704586528708   -1.51860027777209   -4.22777912372834
H         4.15126514758348   -0.38089265990388   -4.04636107879007
H         2.44232278230628    0.14581933113921   -4.10098672123339
H         3.61001666994734   -1.71784589647607   -2.00019946156168
H         2.02849324576536   -1.15459075901530   -1.83398681662976
H         5.00285811109152    1.44945797492492   -1.03216470039775
H         1.55154599290985    1.29149435084099   -1.48139240230678
H         3.75176129205725    2.25756862264507   -3.22832778218758
H         2.77165368066062    4.75407847207038   -2.66226602928668
H         2.62107975041940    4.75650157477595   -0.16020339259607
H         0.25616394020610    3.30937394246721   -1.58283225120179
H         0.56844704848628    5.00132255689049   -1.58373990418284
H         0.17955833391037    4.17929464521855   -0.02439391964864
H         1.92203138939177    2.28156390774692    0.54101784562267
H         6.11953690659126    2.89450594133302    1.36139907573489
H        -0.35096210458570    2.76242684418037   -4.89632121571418
H         5.05106472424621   -0.04672286203365    1.18117038952292
H         4.51019462511390   -1.63252697799788    0.62775930223415
H         3.72488399723971   -0.89744155592313    2.02865348037373
