36
 energy: -50.518538106107 gnorm: 0.295349423288 xtb: 6.4.1 (79825abcba525fcdf90b791dcacef51065a7a4e7)
C         2.67525031427500   -0.71306711618280   -3.46202973593168
C         2.81805932072706   -0.91481452098201   -1.96058198717350
C         3.36196060026152    0.36221424507612   -1.21259135537684
O         4.73868053733471    0.59838502731973   -1.55312646474665
C         2.50928659867943    1.67490660957798   -1.43436182210767
C         2.93228977844502    2.59378844554722   -2.66008976008892
N         2.83816914886130    3.97743406895570   -2.18193476119157
C         2.20230665833400    4.03125021202113   -0.85718125906000
C         0.68220165147349    4.17935806166693   -0.94580719803336
C         2.62085685469465    2.67260824214508   -0.26995000633468
C         3.99708816418279    2.75168407131591    0.37046856609410
C         5.27206964110424    2.74689319583152    0.64332233129811
C         1.94457261286531    2.32161400828204   -3.78291712176559
C         0.87146658071509    2.42983855167819   -4.51556692402079
C         3.12842702583289   -0.08646550332052    0.26661096333498
C         4.39150280360349   -0.54792828621835    0.93737124130945
O         1.99365510561119   -0.21737658507632    0.75503339173029
H         2.08973002545583   -1.51406452930503   -3.94449227834568
H         3.65063472162925   -0.74196670730481   -3.95802237668327
H         2.16690105052135    0.21982126459525   -3.69178082225717
H         3.37510196705935   -1.84187789348302   -1.75519662447852
H         1.81063820251493   -1.10387601183202   -1.56915431017478
H         5.06734270192576    1.39217605619580   -1.09791911076885
H         1.45018551210461    1.36941262530739   -1.41738005659330
H         3.96667246613693    2.43623290734988   -2.96333517857226
H         2.28666438351528    4.52863371109469   -2.83690134412467
H         2.59341390825069    4.90990302905715   -0.33048334424554
H         0.27949687524603    3.32225928932172   -1.49543190528581
H         0.50702267511678    5.10569367191698   -1.50453439326250
H         0.17689251272526    4.29641247693702    0.01985795597538
H         1.93780028201049    2.35121739754934    0.52345755491325
H         6.21327897465673    2.82740575383998    1.13716636203815
H         0.36001124183529    2.41651213135549   -5.45044533446105
H         4.17924689445759   -1.40666998924099    1.57186719399322
H         4.86507645533253    0.14022723736689    1.64487510142350
H         5.11462547960200   -0.82803316419839    0.16631662607927
