36
 energy: -50.516457551678 gnorm: 0.298430093532 xtb: 6.4.1 (79825abcba525fcdf90b791dcacef51065a7a4e7)
C         3.42307356565808   -0.26593663159834   -3.92333352152814
C         3.20212059013802   -0.66840425493267   -2.47259531220105
C         3.35036933062472    0.43105752493642   -1.35218148494185
O         4.71003177675309    0.88563026409939   -1.46071833689062
C         2.37839121104574    1.67751733949711   -1.38368998968318
C         2.80599206830930    2.70888688261037   -2.51467133978302
N         2.78922208725321    4.00649928971024   -1.83064877009501
C         2.09213666644222    3.88266282985700   -0.54187975961811
C         0.57620463987928    3.90587371861174   -0.74662613225550
C         2.49307543428153    2.47352119020355   -0.07337066931938
C         3.83620386890766    2.51197610153407    0.63721273906143
C         4.62850004102190    2.67893271428011    1.65919227375278
C         1.94996894882196    2.67612064044968   -3.77028119258238
C         0.97680422178784    2.77672451056840   -4.63218260645782
C         3.09310629211219   -0.32543513065834   -0.00852024454943
C         4.28433123492762   -1.05166592120594    0.54986997769585
O         1.94077817202476   -0.41248314906547    0.44751049583301
H         3.56878251489534   -1.18285539149513   -4.51934514807971
H         4.29808397121092    0.35615172220924   -4.13683174733190
H         2.57635816486345    0.32726283647108   -4.25900104467210
H         3.94484812018374   -1.42032417571777   -2.16453945698966
H         2.20247338859701   -1.11259316750983   -2.38739638663594
H         4.69549325233046    1.74482615529926   -1.00584713660095
H         1.38678898113709    1.24716524957661   -1.60009733948269
H         3.81132174686388    2.54275575283931   -2.89995271861848
H         2.49020483923008    4.81371979129750   -2.37465567109687
H         2.45538099116556    4.71545684205311    0.07205349564913
H         0.35370589633621    3.27553863378987   -1.61383357765560
H         0.28610143993483    4.93772710700272   -0.97483685617471
H         0.08751933065680    3.54861790441061    0.16721368228370
H         1.71375492109681    2.08419429345589    0.59028437155179
H         5.56183733482752    2.76725505693582    2.16645934058996
H         0.37165539760210    2.69345950252248   -5.50546583496716
H         4.04905151651813   -1.44673779851842    1.53660026614894
H         5.08879253343266   -0.33835594311280    0.75583754479812
H         4.59810183468553   -1.87377528356644   -0.09941776379445
