36
 energy: -50.517333953810 gnorm: 0.307331580509 xtb: 6.4.1 (79825abcba525fcdf90b791dcacef51065a7a4e7)
C         3.88081336286058   -0.42234046790755   -3.78392329677185
C         3.03268563836175   -0.56553823322999   -2.52868804597673
C         3.40050697199208    0.40400114624605   -1.34090779740803
O         4.77198449224042    0.81542538685438   -1.47082352723611
C         2.50796284449056    1.70804601211039   -1.38811256323261
C         2.71641080990838    2.73778844194498   -2.58053213984631
N         2.77339370630764    4.04108902295246   -1.90961736434600
C         2.04150434055304    3.99313688865684   -0.63516545514382
C         0.53545444393225    4.10507961337532   -0.87968999850636
C         2.47788403013767    2.60408390413015   -0.13914391238068
C         3.78771525182465    2.57439115893223    0.63148054408320
C         4.97779868455093    2.67465878224036    1.15464180858962
C         1.59905100823735    2.57693727461793   -3.59839231691383
C         0.48597291131411    2.48924830999125   -4.27175150734923
C         3.13266626322098   -0.38389913719642   -0.01751615993878
C         4.25796542079669   -1.05600700558971    0.71746716166315
O         1.99571970234795   -0.45291084497859    0.47845903312643
H         3.59101865366232   -1.19646040433009   -4.51464781514856
H         4.93493990786838   -0.61563541585607   -3.56104907285637
H         3.78396376727915    0.58014915253160   -4.19272640917970
H         3.23488612016932   -1.57411999324770   -2.13650955921887
H         1.95510669249956   -0.50880043697589   -2.72733753138970
H         4.95750184279072    1.31375033868863   -0.65682579266375
H         1.47592791087419    1.35460527586189   -1.54715224519714
H         3.67821050113604    2.61849220505869   -3.07796437611133
H         2.54704206653751    4.86109454743031   -2.46936341660860
H         2.42694535861569    4.79820018061036    0.00179189421102
H         0.23601203378213    3.42224907603861   -1.68153378655205
H         0.28869514907843    5.12809283220519   -1.18549257781890
H        -0.11759185343098    3.93206089461010   -0.01647316306171
H         1.75852679264176    2.18851556089268    0.57442600638782
H         5.90865403367871    2.78923966112673    1.66121731796606
H        -0.34554654455509    2.60929865893611   -4.92743823773275
H         4.34575983414481   -0.57635494531383    1.69076107439539
H         5.15532717687983   -1.08357624070938    0.09106987603901
H         4.08108818489201   -2.12326007439766    0.87739119167096
