36
 energy: -50.522498280938 gnorm: 0.297174039907 xtb: 6.4.1 (79825abcba525fcdf90b791dcacef51065a7a4e7)
C         3.03841813274750   -0.41436787411189   -3.67072067797978
C         2.91101339866657   -0.75214076063395   -2.19250578489384
C         3.31312226763273    0.40401442342928   -1.19865736153350
O         4.62769842573795    0.83206712151133   -1.59332048587223
C         2.31111114363542    1.61787640449792   -1.34667460138286
C         2.77341587259796    2.61280475835391   -2.49649039725547
N         2.85773484079134    3.94265420640000   -1.88301111928186
C         2.02813500524435    3.89192104481357   -0.67000684241642
C         0.54477060135775    4.06076686680089   -1.00411887681714
C         2.37303465562691    2.50780253287082   -0.09451315619495
C         3.75890654008410    2.59018754098715    0.52433526550443
C         4.96375477451449    2.52674502468650    1.01866880953243
C         1.88942359867998    2.53605253365687   -3.73061846534153
C         1.27021809589406    2.86776360112958   -4.82907060071099
C         3.28011195112378   -0.25656917754337    0.21782790692227
C         4.59301443293037   -0.81770894078920    0.68648223410754
O         2.19277773999283   -0.42521209472882    0.79459939358798
H         2.69557086551311   -1.21179092878577   -4.35172962703197
H         4.00440165314341   -0.00922767762586   -3.98845623224846
H         2.39384353110927    0.44194756421523   -3.85164254079504
H         3.51491603641648   -1.64515214588430   -1.96943981687169
H         1.87666176799644   -1.03588403707935   -1.96128374360401
H         4.88007557497379    1.49345558171819   -0.92683130150586
H         1.29751456021543    1.23741809729145   -1.55448095761568
H         3.75838453571999    2.27326658172397   -2.81473499534370
H         2.54774174690492    4.67811761357516   -2.51543315011369
H         2.34382414921394    4.71473813810031   -0.01753558508593
H         0.21726427234440    3.38776353533152   -1.80329525157298
H         0.48228248076479    5.09333376425161   -1.36586775668497
H        -0.12452875546549    3.93174285654183   -0.14566711575701
H         1.70187838961624    2.18689312548520    0.70917852157864
H         5.80433845145963    2.75812199779650    1.63195747194025
H         0.65197372162210    2.82913506046253   -5.69627501590647
H         5.33325051209767   -0.03479356710351    0.84194622972051
H         4.90607521431546   -1.46181365952384   -0.14147537466707
H         4.46183358382568   -1.34891047276973    1.63332270470879
