36
 energy: -50.520398610378 gnorm: 0.308374895719 xtb: 6.4.1 (79825abcba525fcdf90b791dcacef51065a7a4e7)
C         2.59635768535006   -0.60604021611618   -3.48294380710123
C         2.64868156214790   -0.85289034308353   -1.98235425190095
C         3.32641098989791    0.32916495711890   -1.18891289912934
O         4.61944500284073    0.58279978223708   -1.76409201300832
C         2.44435454667931    1.63092005834636   -1.35263961182965
C         2.83903548897025    2.53605988364335   -2.59788390944484
N         2.98717428262243    3.91078890330224   -2.10784193528969
C         2.20902887615420    3.99113369558441   -0.86276218974016
C         0.72548965301652    4.31657555818651   -1.04636148578978
C         2.42302637695284    2.62817285329312   -0.18270656334762
C         3.77421675156958    2.71268819601384    0.50833853642319
C         4.95764586175497    3.02533207917886    0.95755927430504
C         1.73082364725581    2.49709272937495   -3.63747685292544
C         1.06255373724753    2.33126438307471   -4.74470814064397
C         3.38271292292666   -0.20103568723294    0.28064768547306
C         4.70855832741613   -0.76629326253639    0.70590702147493
O         2.36547064971133   -0.18742392481318    0.99369352373788
H         2.27781953316161   -1.51744724181603   -4.01686482427576
H         3.60174303788830   -0.27081230210681   -3.75688024489119
H         1.85536447524280    0.16442137738059   -3.67992925597887
H         3.19985719359994   -1.76971870755364   -1.72243629807240
H         1.65108572952509   -0.95456095376782   -1.53701973553088
H         5.05662574918598    1.23456736986463   -1.19015058472730
H         1.39983291130572    1.30769633177608   -1.49339135320128
H         3.72276478100759    2.16704798472999   -3.11709662145747
H         2.83456858581081    4.56328761753069   -2.87459920161284
H         2.63130066376250    4.81906393511915   -0.28084774867009
H         0.10918974840413    3.54825544551312   -1.52462437659878
H         0.66917251256654    5.25758010917978   -1.60519977265014
H         0.21268456815267    4.51778388429519   -0.09868305454575
H         1.64172307021595    2.32063769790941    0.52038744961769
H         5.85030507785544    2.90332118077023    1.52721890591525
H         0.44113894181786    2.29331382055789   -5.60967357465779
H         5.42126096698504    0.04960263659692    0.81288284339412
H         5.10201649679699   -1.43279341388335   -0.06827639437081
H         4.61711121128268   -1.35690786876732    1.62171386596104
