36
 energy: -50.519403736790 gnorm: 0.299186568727 xtb: 6.4.1 (79825abcba525fcdf90b791dcacef51065a7a4e7)
C         2.97424444745544   -0.72989980926785   -3.56207041200759
C         2.66845000624924   -0.88099533880931   -2.07913357256907
C         3.25598681653166    0.31163195818610   -1.23145340134170
O         4.63569556969521    0.55421775183994   -1.55495682277916
C         2.40156778077530    1.63528331546783   -1.36302656510398
C         2.71214054481129    2.55491359571760   -2.62140216923272
N         2.93727756386049    3.88764818314804   -2.05122857442023
C         2.21635922503464    3.98710622445595   -0.77350639642685
C         0.71851388375082    4.27745444510890   -0.88605396305425
C         2.59385972108498    2.61371108526626   -0.19280684007482
C         4.00571677489886    2.78071933260730    0.34493791187511
C         5.24940232096459    2.94035431891525    0.70244705944194
C         1.62732648684479    2.49076168603674   -3.68416665468937
C         1.06946099624204    2.34366928814297   -4.85343767983234
C         3.12965493543351   -0.20386137054990    0.23898796610026
C         4.41471069931042   -0.53767436705048    0.94285459546616
O         2.04910687063803   -0.34721160196474    0.83503165336774
H         2.82619781426590   -1.68154993805928   -4.10025736551623
H         4.05488139812016   -0.56224200015013   -3.61037435089156
H         2.43469825544636    0.02130831295063   -4.13308838700098
H         3.14653883772359   -1.78986486413698   -1.68250601829802
H         1.59799633350198   -1.01982892931441   -1.88238159244602
H         4.69678300200151    1.50206876183239   -1.34715030975676
H         1.35869884336902    1.28518822164773   -1.43491435462825
H         3.62861000112585    2.22881340039629   -3.11178106928187
H         2.92747579135367    4.66535809440443   -2.70851921271407
H         2.71869602475075    4.78374597305957   -0.21187555600947
H         0.23214130920497    3.67307692706008   -1.65874166932736
H         0.48233104166831    5.31810396498951   -1.13550867013894
H         0.23701517135423    4.10032524280909    0.08262167164169
H         1.90846106786656    2.39235679509355    0.63216883128123
H         6.15154997918162    3.08388784459078    1.25178022359254
H         0.34395868954550    2.50573268900582   -5.61707610357441
H         5.10003952562434    0.30751862288366    0.91047860067551
H         4.96907956252323   -1.34676655601721    0.45660698863866
H         4.22948869955380   -0.82152959445883    1.98257060743189
