36
 energy: -50.518485153847 gnorm: 0.302281852992 xtb: 6.4.1 (79825abcba525fcdf90b791dcacef51065a7a4e7)
C         2.99285696450771   -0.77479194665447   -3.67086887842693
C         2.85326799557256   -0.81287173722555   -2.15610598695599
C         3.33377830079713    0.37235547077027   -1.23389810048691
O         4.73828680209163    0.57658657446939   -1.46355899333531
C         2.46490495753248    1.68418759203946   -1.38736455968072
C         2.82526827294876    2.62688050528137   -2.61502610249956
N         2.74427359680483    4.01285349563671   -2.14122778185741
C         2.17535801163023    4.01877624999795   -0.78531881954002
C         0.66374071680852    4.25167351273335   -0.74951714027414
C         2.53746192778137    2.64706657425565   -0.19099048288801
C         3.93919255822489    2.73752940007558    0.38984454045496
C         5.04321874296151    2.96793790545259    1.04412891098824
C         1.89401464893651    2.37518312804353   -3.78968372673153
C         1.07635819320345    2.68686318353176   -4.75629549465406
C         3.15149724619011   -0.21697798279187    0.20253869290683
C         4.35551124044581   -0.90088367952490    0.78636313465036
O         2.04672177532458   -0.15587472133689    0.76746262638314
H         2.63482282203731   -1.72737632332650   -4.09700914646664
H         4.04099296214388   -0.64340862040680   -3.95786710111750
H         2.44765539074888    0.04833238216300   -4.12551912875901
H         3.42100735931773   -1.70419650894818   -1.84766096004238
H         1.79620079261126   -1.04347039679209   -1.97364950037261
H         5.01946514729654    1.41219196076969   -1.05363323088424
H         1.42139106939143    1.36620061197629   -1.54633979514531
H         3.85534322539044    2.44688786780819   -2.92043948000514
H         2.17894417793075    4.55704360929928   -2.79024207143669
H         2.64373182370556    4.74364469939929   -0.10885886676896
H         0.22133959413248    3.45030767881976   -1.35032560594454
H         0.56030580867408    5.24374626832732   -1.20344916898516
H         0.14157615990836    4.22278472943649    0.21384046123222
H         1.83566384652954    2.34231550121477    0.59256561933755
H         6.04084105763873    3.16381917380733    1.36447165751049
H         0.37691073883578    2.67642797904158   -5.56030181617238
H         5.36207029369605   -0.57996578927472    0.52382633153959
H         4.21458543661209   -1.95972784518258    0.54682044259308
H         4.29899382409405   -0.90254893517043    1.87846815605603
