36
 energy: -50.520853382910 gnorm: 0.313745937697 xtb: 6.4.1 (79825abcba525fcdf90b791dcacef51065a7a4e7)
C         3.06392352848091   -0.49197213593457   -3.69684191500692
C         3.07266480087463   -0.77417448179117   -2.20160708638443
C         3.42094870548596    0.41495165175728   -1.22651815917495
O         4.79629821786786    0.79915755730969   -1.39354547178071
C         2.42005095113718    1.63422372931841   -1.33128269734693
C         2.78845322037362    2.52691060196381   -2.59345321169470
N         2.99075745303509    3.91026926140950   -2.14920337440703
C         2.24782857791161    4.03516909850396   -0.88641050138101
C         0.75006660760812    4.24514824931858   -1.11690467417589
C         2.43319859792459    2.67248219595961   -0.19745827643815
C         3.76297643625147    2.67870682460288    0.53878468087516
C         4.85276051793763    2.72132268185214    1.25335057339901
C         1.64521888224667    2.53043265681796   -3.59515587065711
C         0.63944395947078    2.63510438610370   -4.41826305425085
C         3.24370499760590   -0.27067830121359    0.16717735418346
C         4.39446358800596   -1.03793919736036    0.75479377443072
O         2.13412900769002   -0.31917288914947    0.72385580234365
H         2.76192964167019   -1.44646838580834   -4.16045551819041
H         4.08172593646663   -0.24598159516632   -4.01588037796404
H         2.37469246777908    0.27713723734553   -4.03583539787998
H         3.81561618537388   -1.56155785575052   -2.00166503238960
H         2.05504080123412   -1.03439084471472   -1.88445408774676
H         4.91979902280312    1.65508882729529   -0.94917404513248
H         1.43938288054636    1.18972739767303   -1.56797491729454
H         3.70819901578738    2.18043857616433   -3.06329773905981
H         2.60658556621887    4.62137375143851   -2.76864032867147
H         2.63441724344489    4.85397552354022   -0.26793528657768
H         0.30945975312295    3.25569745597361   -1.27730881844360
H         0.55457143966253    4.78696293507624   -2.04920285569673
H         0.22921421828422    4.75520686415968   -0.29830755112303
H         1.60770940897347    2.53612242789477    0.50917282290948
H         5.76320878512178    2.65664042294535    1.80393150102162
H        -0.07973419373817    2.70676404416433   -5.20146766086553
H         3.98824727706299   -1.91240239741805    1.26014258408051
H         4.89974765348661   -0.33393533670930    1.42371703285993
H         5.11097994777601   -1.27515161510794   -0.03654998413027
