36
 energy: -50.517974759816 gnorm: 0.308585460128 xtb: 6.4.1 (79825abcba525fcdf90b791dcacef51065a7a4e7)
C         3.28608052519882   -0.60787048931357   -3.62883081842682
C         3.06421575788032   -0.82118115535514   -2.13862400130597
C         3.37053356197784    0.41161992236206   -1.20455121297803
O         4.72393333357744    0.78578063422262   -1.51343858041783
C         2.35495837206167    1.60908859805599   -1.38913758512309
C         2.66969929953739    2.52611475848153   -2.64837768612891
N         3.00506813301865    3.84048282365514   -2.08987036005194
C         2.24031573115224    4.02429371948906   -0.84747088886077
C         0.80822867833926    4.49482976920323   -1.10868387698111
C         2.35435328677076    2.61984759716873   -0.23065701651358
C         3.66008122897490    2.58151917853911    0.54652189235950
C         4.85524639640485    2.41974033553961    1.04195880860425
C         1.53091154404758    2.68554813185158   -3.64243442040694
C         0.50820534658548    2.55934096462076   -4.44130147433969
C         3.23079970968944   -0.22826730651734    0.21492394527853
C         4.48198872257124   -0.72150865433544    0.88534671680995
O         2.09683963242260   -0.45011633165866    0.67134375795392
H         3.10250577652645   -1.49484939304510   -4.25872740130569
H         4.34430377575177   -0.40445211174412   -3.82119283561507
H         2.70701971916141    0.20102718706125   -4.06684725484937
H         3.75218331380327   -1.58183543296716   -1.73858415258194
H         2.03008121753056   -1.16073044979998   -2.00031561195340
H         4.87336799462201    1.69200580092534   -1.19443704009586
H         1.33733629010394    1.18530757458866   -1.40198295118784
H         3.59259824571971    2.22701494887308   -3.14388338933288
H         2.91162154467890    4.56992048672274   -2.79424824498109
H         2.71756311762197    4.71395116390897   -0.14106173046377
H         0.41753286073887    4.07690291516360   -2.04226337714271
H         0.81688377476395    5.56992130851580   -1.32096832165313
H         0.12198299128631    4.31865623460752   -0.27227608448975
H         1.58687271677071    2.41901143237965    0.52432134296052
H         5.77305413327831    2.12926227481018    1.49966032043801
H        -0.41715981181045    2.64736979537954   -4.96256150550731
H         4.64605764614679   -1.75987394180030    0.60258548219832
H         4.42456184356508   -0.76475343989029    1.97769454769391
H         5.39202999504004   -0.19735139642943    0.58042965508291
