36
 energy: -50.517886862491 gnorm: 0.292538038515 xtb: 6.4.1 (79825abcba525fcdf90b791dcacef51065a7a4e7)
C         3.39731686196638   -0.44236957907497   -3.78676189990163
C         2.95675101591180   -0.72472567510503   -2.35790972321403
C         3.33058978561281    0.39521826450659   -1.31287804552520
O         4.67717488852503    0.84705315227378   -1.53570617586489
C         2.33879178538350    1.62636043040854   -1.30818406431361
C         2.67942655909083    2.63072540834070   -2.49178173066601
N         2.91125085196853    3.88891744354496   -1.77402383340751
C         2.09893634341081    3.89724094532141   -0.54835463200849
C         0.60860397042726    4.12634095570441   -0.80706747794328
C         2.43054224888070    2.48522522910570   -0.03631753760901
C         3.83228924512951    2.63260990778239    0.53270329126824
C         4.82322301237978    2.98766543230727    1.30214189450000
C         1.60264261372555    2.66246802560544   -3.56413154506190
C         1.15220209454331    2.82134571174875   -4.77735289393089
C         3.12055122364407   -0.40916461312117    0.01103393466508
C         4.44083715798714   -0.85723031427208    0.57166737271618
O         2.01587056684256   -0.77689602789194    0.44445721436012
H         3.54177994740829   -1.39827313998255   -4.31834422691162
H         4.35978660833664    0.07896341757846   -3.77767769314840
H         2.71341276890973    0.22966639874095   -4.29874637540292
H         3.40305136466461   -1.65226210793591   -1.96750182522811
H         1.87816760952680   -0.90613100623992   -2.44512851456866
H         4.82759475305035    1.54046545632149   -0.87095810698563
H         1.33046458331850    1.20621154245740   -1.45671429506961
H         3.59358422450498    2.27141689940150   -2.96288918935669
H         2.71521656750941    4.72503650557940   -2.32123060154417
H         2.49025186678849    4.69384002705034    0.09562395698301
H         0.18812815936198    3.39749578629457   -1.50768261724466
H         0.47631130514130    5.07424449101624   -1.34086421234068
H         0.00672189312438    4.06957893563769    0.10729803533837
H         1.71062648901519    2.13114791790092    0.70913834190746
H         5.82211172182035    2.93706328569232    1.67078806171581
H         0.43745985156362    2.98508727940584   -5.55071827617317
H         4.50881591974144   -0.49792134488653    1.59702143327436
H         5.28512468588640   -0.49459217860093   -0.02336531343822
H         4.48887253009659   -1.94867835118983    0.52345788642282
