36
 energy: -50.515641652058 gnorm: 0.301291364087 xtb: 6.4.1 (79825abcba525fcdf90b791dcacef51065a7a4e7)
C         2.90588667884630   -0.55372681346781   -3.72831956519424
C         2.98127262651126   -0.84246322722100   -2.23621031601039
C         3.34783418541381    0.33990385590030   -1.25960304162284
O         4.74838755310691    0.58986483075676   -1.46713226861044
C         2.50579784794244    1.66783289119240   -1.42384564542566
C         2.85727894057693    2.67748019451652   -2.59975290569278
N         2.92749626052980    3.99816089912907   -1.96505761208603
C         2.09202700174205    3.99431850274893   -0.75503055060229
C         0.57429337452198    4.15330531231568   -0.86327824009095
C         2.50948047866630    2.61634278482993   -0.21387589261948
C         3.91723910322758    2.67953740821287    0.35588170026595
C         4.98639265942218    2.84039075419272    1.08463873382117
C         1.83606733805823    2.39106694108668   -3.68855946994434
C         1.12746633837125    2.69361138612854   -4.74041323086627
C         3.14599011307348   -0.24780170378656    0.17488366220621
C         4.39296577518081   -0.71008622021078    0.87457816999916
O         2.00173085814095   -0.45327303757594    0.61289483562387
H         2.50349845636499   -1.39915667588518   -4.31187164955329
H         3.90069639354730   -0.21906459211656   -4.03908226907721
H         2.21690350489004    0.26247113532160   -3.92983473022252
H         3.74067980124356   -1.62965599789232   -2.11149283803779
H         2.00588070195454   -1.20774704763622   -1.89119508921603
H         4.96976087566456    1.26533937576616   -0.80375850603017
H         1.45429488785185    1.40737801736162   -1.62833248834502
H         3.84738195750857    2.40146320695188   -2.96064032638045
H         2.60393730191425    4.74453816949689   -2.57758544724910
H         2.56285802560856    4.72119381783796   -0.08244093719843
H         0.06935360637165    3.43768728303493   -1.52039575392703
H         0.21336497449065    5.14615639629927   -1.15472090694680
H         0.17390373349541    4.00921600209408    0.14690721882294
H         1.86865158829575    2.26395189050292    0.60130072687091
H         5.98055718049317    2.73107790977260    1.45332131139009
H         0.26709004159367    2.68047079946440   -5.36917531490421
H         4.08227734538278   -1.27535037109619    1.75151838469983
H         4.94603882280312    0.19658026911855    1.14001710969632
H         4.98233273980408   -1.34610526290657    0.20823236846871
