36
 energy: -50.518768003455 gnorm: 0.298001702079 xtb: 6.4.1 (79825abcba525fcdf90b791dcacef51065a7a4e7)
C         3.44550596335530   -0.15819749519964   -3.89577657021482
C         3.10637660738586   -0.62228245859206   -2.48685563582578
C         3.36167165794943    0.39653405467438   -1.31086311263373
O         4.74990264679228    0.77006769304216   -1.33050849038464
C         2.42743334906974    1.67191419500254   -1.31006963285110
C         2.89219872528112    2.69014885301641   -2.43828763081447
N         2.68404032820944    4.03218992124084   -1.88370493237999
C         2.00794972275747    3.94185010785552   -0.58104253009573
C         0.48736699487953    4.02801446012681   -0.72565786806280
C         2.43095248229760    2.55975667164988   -0.05490642127478
C         3.71345499015056    2.58329695619032    0.76059018155666
C         4.97830149066477    2.75325255713118    1.02766379412655
C         1.98165212352495    2.35886517087241   -3.60942444700979
C         1.16543932990776    2.57728905477944   -4.60246651068668
C         3.05678995235399   -0.38629322263524    0.00751451662995
C         4.30531193713043   -0.98889092522766    0.58742533020436
O         1.88542503727992   -0.48417791277447    0.40966414822683
H         3.37107723367293   -1.00699561030123   -4.59663539716669
H         4.45941215132889    0.25287840405217   -3.86071267168746
H         2.69255784354227    0.53696907265043   -4.25812700783513
H         3.79229570739477   -1.46953415397172   -2.33321411414064
H         2.06419603263154   -0.95929641741910   -2.42252507420332
H         4.85620157077701    1.46842769565330   -0.66242870395508
H         1.37567336049338    1.37896693077580   -1.46268972245045
H         3.93144971187353    2.57131159046449   -2.74253124860047
H         2.18253216579458    4.66305452706887   -2.50616712940748
H         2.31065799525196    4.77608700074680    0.06302490119925
H         0.17069479848107    3.32262353971836   -1.50091210446497
H         0.21628678404426    5.03869647221041   -1.05123244142353
H        -0.03569166284608    3.73252047628384    0.19120700663649
H         1.67777464642366    2.20943459013512    0.65878223594076
H         5.85903047059669    2.82539336056129    1.62377735452867
H         0.55899196123718    2.32754353237352   -5.44247280258179
H         4.75129421990754   -1.49300105631339   -0.26817258055981
H         3.99874279875562   -1.66455378656822    1.39233949405754
H         4.92621090930386   -0.15225761543767    0.91971969460331
