36
 energy: -50.515160736094 gnorm: 0.297986975366 xtb: 6.4.1 (79825abcba525fcdf90b791dcacef51065a7a4e7)
C         3.07614469398929   -0.40380502519485   -3.69745301768305
C         2.97741807821629   -0.82012997156852   -2.23718990195944
C         3.42813536183152    0.35560720277821   -1.28818143324635
O         4.79968963175285    0.70573219541237   -1.53987559850696
C         2.46492092492902    1.59086081673490   -1.50210380395813
C         2.91115841981697    2.61021635443821   -2.63677154070684
N         3.01404375164596    3.91834517186431   -1.98089067722126
C         2.16000335009791    3.91333702001915   -0.78390319759189
C         0.67157222915709    4.07848475224831   -1.09664708985151
C         2.37428022335356    2.48505036979238   -0.25473833026270
C         3.60124879913133    2.37641716443405    0.63585049770973
C         4.74689953267069    2.60322976435311    1.21558345463792
C         1.84111765250776    2.61696460267302   -3.71629579583180
C         0.67744272000319    2.85187652669907   -4.25548210347378
C         3.26912225422612   -0.12339095703058    0.19140179352115
C         4.50138072286966   -0.69240298257297    0.83637624439683
O         2.15259963922899   -0.18054816588010    0.73316907685075
H         2.72073499204488   -1.31761469555300   -4.20325614566576
H         4.10216611433856   -0.19732534130473   -4.01817846634599
H         2.40295985368802    0.41333566079586   -3.94360040570322
H         3.55723728318546   -1.73428878295521   -2.03706616349899
H         1.94299000918194   -0.99755843814110   -1.91729164731573
H         5.05890414131829    1.27719472267717   -0.79719452891535
H         1.50469440485081    1.24049640980105   -1.91504431921747
H         3.86751995707387    2.38789453565564   -3.10865573301677
H         2.80099890972635    4.73202419070138   -2.55490994605276
H         2.43325184384218    4.73714461069954   -0.11376690278389
H         0.39016972557472    3.19490135984229   -1.67885820352590
H         0.43314914718527    4.88525505088207   -1.79895580305449
H        -0.00585687729960    4.16001682454730   -0.23874815913155
H         1.50045157570684    2.11468416482210    0.29171044760916
H         5.71320909651413    2.60177355847952    1.66556445464339
H        -0.00802359360110    2.88837570086958   -5.07069099725679
H         4.68361805930379   -0.29384154112186    1.83287678306008
H         5.32028215577051   -0.64836086361611    0.11121937947148
H         4.29801903965817   -1.75560500382392    0.99173343302547
