36
 energy: -50.514331286762 gnorm: 0.308079187845 xtb: 6.4.1 (79825abcba525fcdf90b791dcacef51065a7a4e7)
C         3.55151811942242   -0.17377265713955   -3.87764271599601
C         3.12883090774850   -0.63012623017761   -2.48893154842132
C         3.49523363738145    0.40141954168112   -1.35412609527060
O         4.88050360509959    0.73910066214703   -1.53878023939231
C         2.48546372232385    1.61767650813725   -1.37603618139639
C         2.91648849687083    2.65181877540144   -2.50317943220311
N         2.75395709909620    3.96057631205231   -1.86075951604194
C         2.00507191202530    3.82955429647220   -0.60211209701496
C         0.50147797010646    4.05257742763842   -0.77524688957998
C         2.47234698470388    2.45718885882828   -0.08810826799308
C         3.81216789067847    2.61739740328099    0.61161649553310
C         4.56892656628954    3.12145014410350    1.54612014077998
C         1.91141759437341    2.55150415697273   -3.63903806516276
C         0.92198308954183    2.57589886040033   -4.48784255114069
C         3.16905418698600   -0.27435290604697    0.01730728066802
C         4.11332265555586   -1.35682290289846    0.45871801150899
O         2.08995422225878   -0.11702150782659    0.61244725231701
H         3.25053319514795   -0.94872136245131   -4.60294510139277
H         4.63591093750842   -0.02988345944847   -3.91772691131477
H         3.11412497069492    0.75830094658726   -4.22608395307995
H         3.56166093385619   -1.63235893969178   -2.34710799815019
H         2.04359631292159   -0.77239246000719   -2.41222838616009
H         5.04199329039703    1.46507246894656   -0.91250332705626
H         1.48116068506988    1.18374113811031   -1.51162956162272
H         3.90831032910297    2.45616502726479   -2.90905888340447
H         2.55010028797444    4.73434488780153   -2.49058834879981
H         2.31269389617377    4.63355504101679    0.07712119786538
H         0.00707311847301    3.28194069499520   -1.37571306292172
H         0.27003443537878    5.02057382164314   -1.23391701301681
H         0.01221711656176    4.00338262053022    0.20442241133504
H         1.76898525190381    2.06345548851815    0.65324874498811
H         5.40639516279865    3.37291210566339    2.15575319131252
H         0.23720884051628    2.64136647578148   -5.30182043538905
H         5.07493825663659   -1.33152999087465   -0.05091979936960
H         3.66855774303072   -2.29632005215031    0.11532169994325
H         4.15072638498128   -1.44783266402030    1.54785002772641
