36
 energy: -50.513788444852 gnorm: 0.312393698149 xtb: 6.4.1 (79825abcba525fcdf90b791dcacef51065a7a4e7)
C         2.90612338933741   -0.47448222803965   -3.59350019413792
C         3.03991573376186   -0.93507026240865   -2.14940876835408
C         3.32899328232454    0.30288010027615   -1.21665257168564
O         4.66227789399271    0.69733203591274   -1.58251922255233
C         2.38708512544338    1.55850280360464   -1.40537716329750
C         2.85452356360612    2.55458150133758   -2.55211733017913
N         3.00992555753797    3.87772412814417   -1.93802458062194
C         2.06461337003478    3.93869160416827   -0.81336598460672
C         0.59168443499735    4.22547444367511   -1.11126809886832
C         2.36545463707100    2.54805745182488   -0.22893121534472
C         3.74005356860121    2.51501506169524    0.41897890992453
C         4.93130138756614    2.58769452918204    0.94404673709506
C         1.81254347577688    2.63098348674316   -3.65613072649953
C         0.98407173668997    2.73037429439718   -4.65802934368018
C         3.24804009991682   -0.11627877040693    0.28722353789643
C         4.47125746476160   -0.78671616497917    0.84622321391378
O         2.14118502457171   -0.09087491385700    0.85080846727670
H         2.80389685951635   -1.25887504675194   -4.36257666066556
H         3.77715878548549    0.11484395313999   -3.89716221090709
H         2.01556433488349    0.14629499674570   -3.64850453195800
H         4.00223264102032   -1.45214518950362   -2.01337251876135
H         2.24852143323570   -1.56050502980457   -1.71768711280543
H         4.95333858548509    1.46250739401887   -1.05799362973158
H         1.34188509787259    1.23150082475641   -1.53161765828322
H         3.82778794034284    2.29491088803539   -2.96691449789124
H         2.93170477377092    4.58377896359856   -2.66763259188703
H         2.40097994029898    4.67782521400216   -0.07651770213842
H         0.32098732307023    3.71918949722180   -2.04361748986388
H         0.58556422192431    5.32025406989813   -1.16006899960261
H        -0.06821934240409    3.85905937776756   -0.31640002519827
H         1.66739338456351    2.25587814232656    0.56270989572525
H         5.94430329061559    2.71902549476484    1.24870806442035
H         0.15578505469183    2.77034033825073   -5.32743628493115
H         4.55672612994632   -1.83369021121899    0.56053903937314
H         4.39886282227157   -0.69316067799379    1.93452378391679
H         5.38719088328904   -0.36310963378989    0.42489929681834
