36
 energy: -50.518858239331 gnorm: 0.316855945137 xtb: 6.4.1 (79825abcba525fcdf90b791dcacef51065a7a4e7)
C         3.20179324561314   -0.37666953572332   -3.67468200918935
C         2.88656244910025   -0.74258279777876   -2.23170632953027
C         3.35742183456960    0.37592706618595   -1.22505435351677
O         4.74221261723697    0.65200964735632   -1.49566751662730
C         2.43068987737794    1.64568494750161   -1.39321841762018
C         2.85601619693573    2.60934274623252   -2.58323760187709
N         2.92999528020241    3.94237821295832   -1.97536456378935
C         2.16087647067247    3.97257645359374   -0.72247452435677
C         0.65542763395830    4.18460826928001   -0.89328448656757
C         2.43775602994581    2.56700669315780   -0.16243505482866
C         3.85370809696442    2.62138200417947    0.38758738024961
C         4.98198783644967    2.94302083741616    0.95643114084683
C         1.77469977972153    2.48172650160563   -3.64383849615180
C         0.88586810665128    2.52333228040109   -4.59688205104724
C         3.12969677637305   -0.25157655345281    0.18854794290788
C         4.30543772486734   -0.94399062939973    0.81816976698123
O         1.97768988130073   -0.45603151423462    0.60625570904412
H         3.26199458131450   -1.29738277685975   -4.27954885398536
H         4.23707562942939   -0.02117035011567   -3.66926471561633
H         2.54513768366475    0.34252409163871   -4.15743377471245
H         3.40627420785623   -1.67920517721514   -1.97761112793278
H         1.80589948928002   -0.85572102068424   -2.07931048101160
H         4.99781074624703    1.52945516502053   -1.16386077970237
H         1.37613865807973    1.33101818212613   -1.45815393271740
H         3.81171699454750    2.37436110489750   -3.05030149401097
H         2.64286756573824    4.73505006089387   -2.54649395898849
H         2.66308081268449    4.71747090699690   -0.09372225764477
H         0.21503651253275    3.42020048079432   -1.54183144369727
H         0.53521244325606    5.17132196925186   -1.35470165020875
H         0.05172402386159    4.07292985185076    0.01480038560523
H         1.77650475352961    2.21379889711328    0.63590379774738
H         5.99031645365920    2.92007574275820    1.30137483455945
H         0.09884757368483    2.57834240171105   -5.31335559131985
H         4.05005967616031   -1.80333360221073    1.43573490635765
H         4.65390849267907   -0.13705279118705    1.47071187451511
H         5.16881858376517   -1.19442975088220    0.19547875196388
