36
 energy: -50.520282654217 gnorm: 0.293518367802 xtb: 6.4.1 (79825abcba525fcdf90b791dcacef51065a7a4e7)
C         3.20619450695625   -0.75737510931681   -3.53767161793060
C         2.74001639123170   -0.81137174780620   -2.09018962547273
C         3.30908682903528    0.39243329453448   -1.24571738725471
O         4.70606354121746    0.64140631376988   -1.47716310057657
C         2.44087152203787    1.70529505281868   -1.39401635313533
C         2.70230366444485    2.53435159499088   -2.72443095908261
N         2.46049837675885    3.92624227752954   -2.32928965090475
C         2.27002090356379    4.06389740673460   -0.87775304426734
C         0.83523688792990    4.45319372061879   -0.51670882394862
C         2.72519154107226    2.72295978744295   -0.27722094216568
C         4.16080644893451    2.69988045186699    0.22165654287372
C         5.36871801493581    2.83166172686653    0.69455530598812
C         1.77687278039111    2.01088875738942   -3.81069509464322
C         0.82431565360327    2.13839287505399   -4.69184348148762
C         3.07877177661511   -0.05554705991776    0.23420138884444
C         4.24690138188172   -0.68899540803079    0.93594501645291
O         1.93047413853630    0.01207700399768    0.70349984310896
H         2.77307440353463   -1.61144045661426   -4.08555877167177
H         4.29478648991405   -0.80154410451966   -3.64366797171215
H         2.88708681031425    0.13212341952349   -4.07474509161378
H         3.10156329333318   -1.72038316928849   -1.58530523572847
H         1.64603212949960   -0.75504445955272   -2.02787700177692
H         4.98014710096100    1.44959569196170   -1.01128233510304
H         1.36882872980941    1.45124808123569   -1.43267477799656
H         3.73338952766312    2.40324491417654   -3.05062426916089
H         1.61723611372509    4.28722764035869   -2.77150916990714
H         2.96849462443308    4.83814639100072   -0.53851960533734
H         0.04038967772066    3.79880343845084   -0.88935883147352
H         0.56427065022441    5.46829534999133   -0.82832941255055
H         0.72600985221563    4.45263243968536    0.57398700548605
H         2.10709344578870    2.44902975804034    0.58433056650232
H         6.36658816256418    2.54717772418642    0.93861111430860
H         0.12220133703060    1.86537886563390   -5.44567412904073
H         4.99543945290594    0.06467190213364    1.17417042679977
H         4.74267118740084   -1.42249070399185    0.29205938822903
H         3.92643638990901   -1.14050697683107    1.87898789219765
