36
 energy: -50.517837412414 gnorm: 0.302074627202 xtb: 6.4.1 (79825abcba525fcdf90b791dcacef51065a7a4e7)
C         3.30363581429994   -0.58625154140171   -3.65795773915067
C         3.02842961292073   -0.82999458399934   -2.18137633333931
C         3.41998647815402    0.39133943407478   -1.26423539956682
O         4.73969354776690    0.88440618871021   -1.55121449130466
C         2.39146441505393    1.58292151332530   -1.41144560139588
C         2.72964698299655    2.48655528192087   -2.67428488692424
N         3.01249026366059    3.84177260275173   -2.18915419927752
C         2.30907536897474    4.01622526863272   -0.90971570429336
C         0.83916318539124    4.43418352082516   -0.98167949808747
C         2.39056444926625    2.61776234837691   -0.27442538728567
C         3.62674996919682    2.41135349542214    0.58559920071037
C         4.83151103663972    2.41554057398293    1.08418030590886
C         1.51641750998317    2.34688637625140   -3.57925573256132
C         0.50160196962145    2.70395791949126   -4.31593351615710
C         3.20778064990911   -0.19611359148471    0.16885865149090
C         4.42778630357489   -0.71413874526432    0.87699974353850
O         2.06057661589301   -0.32205937062389    0.62870868194757
H         3.18780488738480   -1.50812337165960   -4.25288336091804
H         4.35420983381787   -0.29497132776466   -3.75628726998159
H         2.60415892518156    0.12405497231150   -4.09118055106037
H         3.64777742333200   -1.64251230265231   -1.77131608114057
H         1.97510038451084   -1.03826032577478   -1.95558860433609
H         4.92535467977850    1.66789711727864   -1.00622948318275
H         1.35693111341122    1.20768729044272   -1.47663907126148
H         3.65139231656479    2.23070743166145   -3.19549164832283
H         2.84338277368298    4.58147936544479   -2.86826857085879
H         2.82689273148506    4.72863313358318   -0.25645728835286
H         0.37226906645754    4.17753795258539   -1.93824611425759
H         0.74601192079297    5.52597299501382   -0.99841262962468
H         0.29599416775958    4.06215755061419   -0.10525930980666
H         1.54547370142728    2.46331125003187    0.40478031502862
H         5.70545781415911    2.65269607265537    1.64650895104444
H        -0.30682262581681    2.55652637702638   -4.99451689778635
H         4.48755666307153   -1.78986490713902    0.72106474010173
H         4.29007581943835   -0.51774981510650    1.94510973585673
H         5.35251666413035   -0.29195370932963    0.47385718990143
