36
 energy: -50.521575383242 gnorm: 0.306322205667 xtb: 6.4.1 (79825abcba525fcdf90b791dcacef51065a7a4e7)
C         3.11077246362673   -0.77023839068138   -3.52279531301773
C         2.85704982753413   -0.80021326212223   -2.02273928251351
C         3.36019384357788    0.39446277176706   -1.12512225225488
O         4.72037254817089    0.67064829068320   -1.50026758948245
C         2.35694945230216    1.59544230691353   -1.34994481698251
C         2.71431048749078    2.35106666126399   -2.70161394334503
N         2.94753532985189    3.76452059736504   -2.38582881630028
C         2.40555660309792    4.05657343685518   -1.05048117700092
C         0.95190810451362    4.52874217451077   -1.11735751702322
C         2.47225179766398    2.71446649762799   -0.30199368823025
C         3.82370956110539    2.65978572498724    0.39152882355259
C         5.07171730531847    2.65160204358831    0.76896699410215
C         1.52784640375927    2.21109608408024   -3.64135679293666
C         0.44445992625977    2.56736822923000   -4.27332889525020
C         3.20348445456317   -0.04661939336039    0.36644726262540
C         4.38269258864693   -0.81526022724352    0.89264789228717
O         2.15082963317937    0.16191457466921    0.99241283058438
H         2.74685299047321   -1.69082625725545   -4.00991086920491
H         4.20084285334623   -0.70707651910331   -3.60009831346590
H         2.64186888394467    0.07585264800473   -4.01852170069780
H         3.32594158047679   -1.70957660795805   -1.61638353796794
H         1.79639164034746   -0.90407001541486   -1.76182709890475
H         5.00001403148527    1.52271846095999   -1.12461640031294
H         1.35723914007841    1.13558046114514   -1.28348856500671
H         3.59650339655053    1.92413999395121   -3.17721710878502
H         2.61251815428359    4.38802263937052   -3.11792748991609
H         3.10428127678067    4.81554618368228   -0.67879509059393
H         0.32438943964530    3.74782263272031   -1.55924183882979
H         0.82148684882458    5.38268024063442   -1.79170274508591
H         0.51535039862370    4.69190083081020   -0.12521595839325
H         1.71821649153188    2.59265214746612    0.48282853626856
H         6.04429511217480    2.79263334738422    1.18181294938596
H        -0.42539226988930    2.46811969734308   -4.88100371286207
H         5.35691028846029   -0.57128960525450    0.47258456574829
H         4.17616547273676   -1.86166499965670    0.64612132713669
H         4.41370192093236   -0.66297943619956    1.97511699018800
