36
 energy: -50.515626870794 gnorm: 0.305677434379 xtb: 6.4.1 (79825abcba525fcdf90b791dcacef51065a7a4e7)
C         3.19442621568969   -0.40326767273741   -3.81796701855580
C         3.20005012730697   -0.76956008941587   -2.34106484936043
C         3.51651207797057    0.38714773009228   -1.31734616548550
O         4.91131668660354    0.71592671736722   -1.43363494027643
C         2.53089616186541    1.61615755644521   -1.44960527307582
C         2.89388139913781    2.71241875884898   -2.54145581518489
N         2.83921979568000    3.97167429512574   -1.79095349791010
C         1.94554766515149    3.82786475743708   -0.63213596375910
C         0.47602577349192    4.02375711131521   -1.00981483009221
C         2.36363747323596    2.42693626234616   -0.15408461164713
C         3.67125032158277    2.53588689158299    0.61317022023202
C         4.71015496052569    2.64816923000837    1.39299053945831
C         1.86372170413881    2.73125513224557   -3.65896269268255
C         0.92416168303290    3.28210466972401   -4.37578666431838
C         3.23657405913313   -0.39211030049437    0.00865632284905
C         4.40706043175007   -1.01137800830616    0.71907650889694
O         2.05226854717223   -0.51362044491085    0.36370173556424
H         2.57553355657058   -1.16327350729073   -4.32448847068828
H         4.15713913862432   -0.53348001634697   -4.32239461833463
H         2.74173112244086    0.56478028096962   -4.01655095579117
H         3.95324560927143   -1.55348400603243   -2.16761160397485
H         2.22281866003329   -1.10854298740195   -1.97505057925060
H         4.96437071547854    1.64096322878763   -1.13896651739636
H         1.54514353202469    1.17117278238922   -1.66312431405039
H         3.87014273057991    2.48091892864569   -2.96577966202045
H         2.53774322367971    4.75114667675103   -2.37275626757044
H         2.16863360293266    4.68995500122395    0.00773858010920
H         0.23220172043704    3.62743724674110   -2.00095415270716
H         0.25619231052271    5.09725798460662   -0.99463132762796
H        -0.16785061440682    3.57436011177488   -0.24495288924806
H         1.60778243783763    2.02015453652155    0.52603722036785
H         5.60322118543202    2.90303179276179    1.91617024880072
H         0.23468672533308    3.57497935762162   -5.13381733849983
H         4.98111857618241   -1.61511289160904    0.01833658690475
H         3.94942360565963   -1.54224908556793    1.55999040758348
H         5.15040185738127   -0.30645529773617    1.10172238179681
