36
 energy: -50.518290061225 gnorm: 0.308791279813 xtb: 6.4.1 (79825abcba525fcdf90b791dcacef51065a7a4e7)
C         3.24592107138004   -0.18887449160574   -3.78854194228486
C         3.28166986838721   -0.76818266288999   -2.38192690892634
C         3.53842986568393    0.37450726056611   -1.32624934122865
O         4.88047537357576    0.87342472862000   -1.45699261339029
C         2.47484411509808    1.53815659204218   -1.44500086820098
C         2.83520009669473    2.62918770543734   -2.54294401789322
N         3.00273124419009    3.89446418093458   -1.81977401736906
C         2.07420697310066    3.85592336710413   -0.68023621093256
C         0.65547533868900    4.34541783256981   -0.97706182141452
C         2.24271971459675    2.40542272727143   -0.19693073255009
C         3.46022066379581    2.46828616793165    0.71089150652366
C         4.51014058617164    2.75262724572107    1.42982698804465
C         1.75930868081104    2.73310350946238   -3.61161820714681
C         0.71384633353517    2.67028279176112   -4.38821773425185
C         3.23088386929607   -0.46769684127242   -0.04562501429633
C         4.45001537483841   -0.84442938352163    0.74811211993248
O         2.04892274955400   -0.71714339608342    0.24445398260511
H         2.99580353696926   -1.00729025942487   -4.48484491105581
H         4.20167552714569    0.27542640391830   -4.05155663850990
H         2.44554507526256    0.50776747224045   -4.02428228160658
H         4.12393437428375   -1.46346125071630   -2.24370839865028
H         2.33031125224169   -1.26868123237337   -2.16221083879387
H         5.03984958995370    1.52196780232450   -0.75036081811998
H         1.52085493138414    1.06188196382494   -1.72496012698053
H         3.77178228697300    2.30237008876042   -2.99320296010001
H         2.73251019420916    4.68846992159146   -2.39726448865617
H         2.48748663741056    4.47173710034089    0.12746405857410
H         0.16056144909699    3.75768074887971   -1.75712728150668
H         0.73192180608521    5.37795046193694   -1.33621878161810
H         0.03556966918346    4.40877682348741   -0.07525760123054
H         1.40307614659876    2.06737916707368    0.41957485782286
H         5.39077792126513    2.63428011514712    2.01864874875304
H        -0.17033347396522    2.67067726840014   -4.98318637513309
H         5.03187524274542   -1.49554730971774    0.09806632046388
H         4.21247488196041   -1.46355091116317    1.61912003696418
H         5.08647178635292    0.01543375531288    0.97493580873131
