36
 energy: -50.513589188064 gnorm: 0.294884084294 xtb: 6.4.1 (79825abcba525fcdf90b791dcacef51065a7a4e7)
C         3.29607183552136   -0.91739099305092   -3.44754191985786
C         3.02554398025369   -0.94590751294307   -1.95039688487115
C         3.37944069834169    0.38603927040889   -1.18437081875423
O         4.75028428923452    0.65321270567972   -1.52569877281514
C         2.30521574333195    1.51647229777469   -1.44429046074888
C         2.51483017942507    2.26310856888802   -2.83147485942119
N         3.01241359505860    3.57747796970219   -2.41098712033409
C         2.42921603371761    3.98241465362574   -1.12331635103464
C         1.05447567514366    4.64145038585588   -1.25087249492141
C         2.37122360369013    2.63227864028029   -0.38867192364529
C         3.62565710612233    2.55301570170486    0.46603009174886
C         4.86290522625761    2.62098886694417    0.87179681461292
C         1.22304082026658    2.40021272400600   -3.62070746874010
C         0.21199408967040    3.13773065606433   -3.98662639210393
C         3.31858454945561   -0.07799358088660    0.30722596561574
C         4.54186044188808   -0.59548787100125    1.01009395025119
O         2.20217092706832   -0.15771497316588    0.84636102387413
H         3.09991565288399   -1.93610813989957   -3.82296048349437
H         4.31970893129813   -0.63630736131128   -3.71470799982693
H         2.62450890966695   -0.21166531743087   -3.92966200315462
H         3.69126152293843   -1.67464388751553   -1.46286266525602
H         1.95922080048290   -1.18550150370430   -1.85340836500933
H         4.92409163475274    1.58304684651017   -1.30089613017319
H         1.28239306190512    1.10678165723155   -1.48030979668435
H         3.36266414022656    1.80214390393171   -3.33686405044631
H         2.73931990265368    4.25420583983161   -3.12121173588763
H         3.10004819055860    4.69876354307420   -0.63419996804714
H         0.18101966446507    3.98450410820661   -1.31700072097711
H         0.97771090748902    5.44783202101454   -1.98898985602125
H         0.93476118811128    5.13278868929845   -0.27834827000083
H         1.52821566935343    2.57268033443940    0.30784768956592
H         5.78084666464641    2.71728184697466    1.40504196362052
H        -0.67056392198143    3.20689584775614   -4.57998070396833
H         4.53729910535441   -0.37815570361663    2.07678083717648
H         5.43949607870746   -0.25904631627027    0.48146451088611
H         4.53340865034036   -1.68891057548084    0.99441847045377
