36
 energy: -50.518763321092 gnorm: 0.301295484990 xtb: 6.4.1 (79825abcba525fcdf90b791dcacef51065a7a4e7)
C         3.37142570599293   -0.60190581630948   -3.66245686936032
C         2.82383225667813   -0.75802799094790   -2.25135479415082
C         3.31245776127220    0.38200770343822   -1.27786374452251
O         4.69589487339653    0.68537686043814   -1.52518443407701
C         2.42030217796904    1.68028371619252   -1.41178234631434
C         2.81078970731799    2.63880086345067   -2.61778768889046
N         3.01486592747864    3.92160180659090   -1.93606871962592
C         2.15430941821984    3.93756719873587   -0.74385366408014
C         0.64009632289641    4.01221505699572   -0.94902709630739
C         2.49495337712201    2.55909715535070   -0.15248670613164
C         3.86811945369030    2.62985593638068    0.49544052306800
C         5.11812670573511    2.60211772311297    0.86525447223752
C         1.65655632520718    2.62273807980365   -3.60667226036654
C         0.78849820310139    2.82235776137867   -4.55886547215905
C         3.12359758916601   -0.23025413698006    0.14809496928171
C         4.34182238540691   -0.65577213135696    0.91821864226912
O         1.97184564477804   -0.41183185041086    0.57692885512991
H         3.17155690293049   -1.39652095300196   -4.40126687031883
H         4.44814871122794   -0.41397596114459   -3.60271934270692
H         2.86729785709928    0.27421994801944   -4.06213677741945
H         3.24791779110659   -1.65899578416832   -1.78195659700159
H         1.74614983993800   -0.93701464301781   -2.35344088016835
H         4.84516323498325    1.43071627297413   -0.91894613408861
H         1.39741818974521    1.29789369041708   -1.56276676830822
H         3.72621796867934    2.32199885046818   -3.11614164434758
H         2.90057803377024    4.72346954212767   -2.55324469800027
H         2.55734267379107    4.77321182588279   -0.15932940133905
H         0.35196834322431    3.17250088665911   -1.58991643461295
H         0.28427035468493    4.91468681100139   -1.45882512389651
H         0.10421603758485    4.02525852591076    0.00711642997103
H         1.73329744019458    2.30253571521750    0.59142886471185
H         6.07850881013334    2.69196664161780    1.31894224935254
H        -0.11767676399540    2.73946402903723   -5.11360627119177
H         4.03728438353773   -1.19394716811394    1.81415348216538
H         4.80563141476482    0.29506431930527    1.19961334784113
H         4.99372969515627   -1.27574538917937    0.29649491793737
