36
 energy: -50.521757869630 gnorm: 0.307978946371 xtb: 6.4.1 (79825abcba525fcdf90b791dcacef51065a7a4e7)
C         3.45037478444797   -0.16876628862240   -3.86929159118818
C         3.36198185255246   -0.71416128234488   -2.45148597468127
C         3.46895998401768    0.36478354277937   -1.30669131558927
O         4.82801759820021    0.80225186515789   -1.47605028618612
C         2.40224712493296    1.51876891053805   -1.47942748313932
C         2.73656874088192    2.56413098805039   -2.62883240481113
N         3.07430153295663    3.77200612351431   -1.86795112740929
C         2.14820898650530    3.84820682470051   -0.72833049877142
C         0.74488105611423    4.40277104765098   -0.98059815101728
C         2.20083913879000    2.39353212706648   -0.23125462780133
C         3.36231046391278    2.33219187066914    0.74732766823783
C         4.44452673557782    2.30956036972011    1.47420156492343
C         1.51024969201605    2.68013528774981   -3.51938839349809
C         0.59306330696571    2.70306200140036   -4.44582690013729
C         3.24992767175221   -0.25700405169215    0.11080506020541
C         4.50473542970181   -0.79360856075123    0.73988435821275
O         2.10972060485319   -0.37170383988809    0.59056885010370
H         3.44973247364388   -1.02791203002162   -4.56143980863554
H         4.31533277504462    0.46641471712776   -4.08518830777326
H         2.51746804191699    0.34906288290570   -4.07671200610728
H         4.19310768069751   -1.40425077761023   -2.23951307002751
H         2.41380668692953   -1.25561125744320   -2.34353709138740
H         4.89748323624643    1.72547840965587   -1.17912600949894
H         1.47469432216392    1.02293185089122   -1.80973260721083
H         3.59259110412090    2.25718112618671   -3.22861283778320
H         3.03601593667144    4.62441869295049   -2.42372698035463
H         2.58307163408435    4.49106202374494    0.04629071831108
H         0.13317489210309    3.76464013222162   -1.62672605182943
H         0.86816383818129    5.37457444280852   -1.47188313072413
H         0.19975148859976    4.42791597840335   -0.02994062001687
H         1.32579638713389    2.12420535007705    0.36967563627853
H         5.11318579123779    2.33379963653404    2.30398873285542
H        -0.30552230146476    2.76174388264492   -5.01579367369325
H         5.33819007034347   -0.32411471658474    0.22026537090443
H         4.47819441989115   -1.88786043263134    0.72255914119670
H         4.50674719105300   -0.46738301449265    1.78365790362643
