36
 energy: -50.521299114980 gnorm: 0.308738688916 xtb: 6.4.1 (79825abcba525fcdf90b791dcacef51065a7a4e7)
C         3.19343897284937   -0.46277285454293   -3.59879770940132
C         2.94794199631456   -0.78829523902211   -2.13277990815979
C         3.36515275170490    0.40231991597640   -1.18700413375567
O         4.76461645317233    0.53783621125100   -1.48739599420349
C         2.46364410779731    1.68124756105772   -1.41288588131321
C         2.78069234675635    2.57124917907964   -2.69079901622153
N         2.92471290917853    3.91879244580409   -2.12923753834437
C         2.18658831383413    3.99565851149602   -0.85980742899613
C         0.68631594148318    4.28433912192047   -0.93953218403876
C         2.47429256868756    2.63347623712095   -0.20588194322499
C         3.84089690323765    2.60295303330859    0.45884545017870
C         5.00714266965617    2.60897415568462    1.04184156725195
C         1.67191592610612    2.45027761085071   -3.72345870526521
C         0.72050562599715    2.42135894063127   -4.61454058542398
C         3.13495941546893   -0.17117458624380    0.24896453797992
C         4.32644395388445   -0.91847202455701    0.77824594317685
O         2.04275912189080   -0.01079621769411    0.81885820121654
H         3.01726027455500   -1.29001545923890   -4.30719852164229
H         4.18484496279465   -0.00024886962376   -3.63627248899078
H         2.52538028455450    0.34840432944033   -3.87660058126100
H         3.61620336368052   -1.64034211429267   -1.93436359367899
H         1.92418824588143   -1.09873080325272   -1.88902757002423
H         5.03372765748641    1.33695342826349   -1.00332204368481
H         1.43959392084935    1.27731438878445   -1.47178646604383
H         3.72138738361725    2.28227351414396   -3.15804088620854
H         2.66175787022601    4.67895623649416   -2.75370965395390
H         2.69541167968112    4.74820888272358   -0.24566324573346
H         0.06630581694795    3.54563963755370   -1.45797916804898
H         0.50922741209707    5.27996096232014   -1.36183328106011
H         0.27499477816918    4.29205714788611    0.07649123417429
H         1.74225796314562    2.29613186590785    0.53552079533959
H         6.05278023341442    2.62745961154034    1.24809285361473
H        -0.09573131604678    2.50311261367316   -5.29486061474242
H         4.97980820833708   -0.13897204890097    1.16627937037945
H         4.88951592883251   -1.38922157118346   -0.03399574505726
H         4.07247650548520   -1.58554911886479    1.60673797815746
