36
 energy: -50.506308163224 gnorm: 0.306492850047 xtb: 6.4.1 (79825abcba525fcdf90b791dcacef51065a7a4e7)
C         1.54496270724433   -0.53196603981028   -3.31271729504586
C         2.28274125882428   -0.81705089053839   -2.01277452518464
C         3.38816571075011    0.21443450796765   -1.56534216841622
O         4.50899336953158    0.20542557945520   -2.46576583838702
C         2.59757403466134    1.58349631988128   -1.55978496894988
C         3.38324322120396    2.86702830761201   -2.07062157323275
N         2.82961439776013    4.02369457104712   -1.35817202204711
C         1.68926926503030    3.60586469675276   -0.52918450979509
C         0.26620111098547    3.73552160005273   -1.07560545574206
C         2.03528542265854    2.13537876722844   -0.23956959065821
C         3.05369607447049    2.18681648122816    0.88763736824845
C         3.55925930186563    2.57480158177205    2.02514487843502
C         3.32338729741496    3.06539756791178   -3.57643439461280
C         2.99275675715397    3.21289292530890   -4.82902106266129
C         3.93654031478674   -0.13684177375554   -0.14415210486576
C         5.32967170388747    0.33670860279901    0.16107344606907
O         3.20344004514317   -0.70759745530298    0.68059236140119
H         1.35909274812583   -1.46121599040295   -3.87764902343146
H         2.05303327850401    0.12372055816310   -4.02697075562974
H         0.55592278733940   -0.16735725034632   -3.04748959075180
H         2.71680265984624   -1.82300799979878   -2.12032522961332
H         1.56462112862039   -0.96921489682230   -1.19729504977707
H         4.21576254966249    0.48581793402712   -3.34935656143476
H         1.70963943995687    1.42408898197624   -2.19340277753004
H         4.43928459319422    2.82534827102957   -1.80648436322019
H         2.80369690483968    4.88590105929019   -1.89936331824089
H         1.76666876461405    4.17427016193164    0.40533724358819
H         0.10648929327506    3.12358392476282   -1.96941817617936
H         0.12763749659720    4.77042876501454   -1.40836468080339
H        -0.35299423683575    3.43782274538639   -0.22148557513465
H         1.19856664862509    1.49710036068623    0.06350844553151
H         4.33240732533065    2.60728108851436    2.75823863699928
H         2.76105363096822    3.32823991550811   -5.86283463499957
H         5.24772658858473    1.40555915091232    0.35059521937020
H         5.97854192170114    0.12182589493083   -0.69401988578446
H         5.69031275105356   -0.13340425499096    1.08021560172358
