36
 energy: -50.517078083814 gnorm: 0.303633740210 xtb: 6.4.1 (79825abcba525fcdf90b791dcacef51065a7a4e7)
C         3.10712145783783   -0.52314147090686   -3.70253606219555
C         2.90167519339006   -0.80128126568258   -2.22068861317802
C         3.35098569282200    0.39427609952693   -1.29608938441574
O         4.70752325809317    0.77258205176365   -1.58555275955072
C         2.37376781645217    1.63281596594676   -1.39836641877877
C         2.82070541095200    2.49548938985125   -2.65603324913228
N         3.08819075529907    3.79714434904113   -2.03465408846700
C         2.23245469121593    3.94478196461923   -0.84801680427206
C         0.76151887404719    4.28975587769625   -1.08853821134110
C         2.35316885311637    2.56608913770848   -0.17677392083179
C         3.57477378138519    2.37439064496883    0.70715745425602
C         4.74492937371938    2.68132741962199    1.19354786386120
C         1.70309354084009    2.56552831112635   -3.68386767553201
C         0.69958534149533    2.66654935801285   -4.51019136640781
C         3.28858462144066   -0.11083729488073    0.18203697387134
C         4.51115292870762   -0.79837285535203    0.72134140191057
O         2.22778531628708   -0.10762096108284    0.82864040016259
H         3.03145008438460   -1.45643930714137   -4.28599982561396
H         4.08011856207099   -0.03903018463966   -3.83342352387963
H         2.35478898759803    0.16505180626290   -4.07919391194117
H         3.51357465681418   -1.66349960543898   -1.91395624109140
H         1.87832273315028   -1.11152449541208   -1.97501390874873
H         4.93494823705313    1.57813601913581   -1.09088373999273
H         1.37706044478143    1.17951399802500   -1.52643599275052
H         3.72589477463637    2.02621005870518   -3.03961921590243
H         3.01724973929744    4.56989200095783   -2.69403880923990
H         2.72692799327289    4.73006237437243   -0.26386169847624
H         0.21316584125589    3.35529491829925   -1.24655222483289
H         0.69025244912419    5.05956800566976   -1.86524394618569
H         0.35948968626951    4.71734256520032   -0.16274643622081
H         1.50423575575172    2.39944434792072    0.49471399999932
H         5.64675245139985    2.75707137130947    1.75676826035818
H        -0.22913085635877    2.47612290219419   -4.99700319708298
H         4.67167787649629   -1.82255053527253    0.38912638741629
H         4.39318984959976   -0.88347265462018    1.80634577250969
H         5.46751455903802   -0.28836554804145    0.57589263480343
