36
 energy: -50.487855685817 gnorm: 0.308663238735 xtb: 6.4.1 (79825abcba525fcdf90b791dcacef51065a7a4e7)
C         1.03386989019591   -0.68960285731233   -2.57171747164228
C         2.09053501459536   -0.81251064447746   -1.48369437178139
C         3.23578331454739    0.26928852855722   -1.54879388681594
O         3.99318956153600   -0.04029215925857   -2.73099276992913
C         2.65252136883836    1.73493100328634   -1.65412185461088
C         3.50758107536788    3.06705930268316   -1.79551348608137
N         2.60379214186591    4.14118672493875   -1.36962388706713
C         1.48555143412289    3.63194299693827   -0.56191250450369
C         0.07275158813783    3.80281483038767   -1.12343646137059
C         1.80864799293559    2.13368724985362   -0.43240888685693
C         2.56983363165158    1.81380266586532    0.84378542695469
C         2.81679676295887    1.98265538167109    2.11285908259333
C         3.94532581215815    3.17898925665067   -3.24680829512417
C         4.35572314733082    3.23886720442807   -4.48294480713178
C         4.40125642243135   -0.01053485525332   -0.54516933201222
C         5.55120317827969    0.95658336160619   -0.56824505555138
O         4.48952220427377   -1.05901916612610    0.11535416791095
H         0.14827682952738   -1.25537650528330   -2.23582153086607
H         1.25327943036808   -1.08870434368054   -3.56710487562156
H         0.73932640957808    0.35668820232663   -2.56961339767508
H         2.62159112150727   -1.77192775533682   -1.58077364890367
H         1.51775809036228   -0.75130318361600   -0.54986493198382
H         3.39315697816895   -0.29855470121119   -3.45113033666670
H         2.19290341220733    1.75023629944247   -2.65603361113244
H         4.42273479442575    3.07391664610742   -1.20460255758809
H         2.27832551411286    4.57380468535623   -2.23210458575620
H         1.45063610173113    4.22078058767270    0.36245623958785
H        -0.01002562320101    3.42586414307147   -2.14809878488870
H        -0.01096694140534    4.89549124876170   -1.12013908263787
H        -0.73866132291508    3.35992566240482   -0.53436386140034
H         0.87761385407288    1.55958099049178   -0.37826670918477
H         3.45071476924859    1.90856564453285    2.96661427338692
H         4.63098445203790    3.26533039299513   -5.51216426883276
H         5.77888170776171    1.24009383433670   -1.59433437781914
H         6.29866566124088    0.48409741780939    0.07708324821353
H         5.25456102244885    1.88814380102422   -0.07825633239472
