36
 energy: -50.522026530985 gnorm: 0.304982966523 xtb: 6.4.1 (79825abcba525fcdf90b791dcacef51065a7a4e7)
C         3.47790127514906   -0.31252115261749   -3.79491154509629
C         3.05597541373327   -0.70874548368886   -2.38763522698288
C         3.44689456806596    0.42904114975733   -1.36844688254712
O         4.83195215273314    0.74411494118665   -1.59080377386683
C         2.42201725605038    1.62565675986618   -1.49934354148468
C         2.80918807171552    2.74654366579510   -2.55735856715554
N         2.88690676571423    3.94822085567188   -1.71956514273819
C         1.97124961948025    3.80592390827526   -0.57785033845779
C         0.48367843317102    4.00595829000484   -0.87387050310807
C         2.29871572979575    2.36340922577930   -0.15612747776954
C         3.59427057768833    2.35679503198190    0.63879104904281
C         4.74746753178790    2.40538696274078    1.24527725124005
C         1.80322217473220    2.72767181940390   -3.69669250873255
C         0.95904511046448    3.01265609467168   -4.64863464958098
C         3.23217985289353   -0.16690255912878    0.06076256816397
C         4.39509147711556   -0.87390616342337    0.69795181865321
O         2.12310946446272   -0.20714994882347    0.61910343450841
H         2.99704948294439   -1.01737841678197   -4.49431040569416
H         4.55604238691309   -0.34027002770948   -3.98215570234287
H         3.02984890745628    0.63672063598703   -4.07717803877153
H         3.61585508763159   -1.62071434867580   -2.12922913428567
H         1.97837703301000   -0.86245425989589   -2.24974929327746
H         5.16967569109264    1.35882643177729   -0.91744699868121
H         1.42893170724448    1.23564642534554   -1.77680182775380
H         3.77285753081784    2.50762298021837   -3.00567447322174
H         2.66472841608331    4.78017996815137   -2.26310961017752
H         2.28311731931986    4.50965799733496    0.20311267396431
H         0.16673366779962    3.42607598608239   -1.74688785098186
H         0.20899664434570    5.05723159198884   -1.01647405262486
H        -0.10785590508497    3.75028060691364    0.01284495454367
H         1.53563667205521    1.97010728354082    0.52385623427005
H         5.54748714238833    2.20340485441556    1.92011876494401
H         0.24612437194157    3.19463622009905   -5.41960094514722
H         5.27315754746910   -0.83746698349784    0.05549780424263
H         4.13485483400362   -1.91137641633316    0.93102715475261
H         4.66081504431623   -0.42785316465386    1.66040601304628
