36
 energy: -50.516747102390 gnorm: 0.308075375543 xtb: 6.4.1 (79825abcba525fcdf90b791dcacef51065a7a4e7)
C         3.08400787402093   -0.45647475195770   -3.64478314142989
C         2.90415917436075   -0.76273351024628   -2.16515419928577
C         3.41519285993273    0.39245136760944   -1.22148393443533
O         4.79822711005237    0.71014006431814   -1.45254401457647
C         2.48967092917571    1.66261580343089   -1.39320414887379
C         2.85878045610501    2.53407773713931   -2.66991741920796
N         2.95651521609863    3.89356889869528   -2.12751736174524
C         2.13919445289373    4.00067619338823   -0.90985405737063
C         0.61244423569491    4.09279547906234   -0.94237384703747
C         2.47974565060998    2.66491266963353   -0.22743666051464
C         3.77851606359338    2.64941354219544    0.56209277525011
C         4.92326196198843    2.64746133638643    1.18627456171409
C         1.75162851148202    2.44927024457797   -3.70790955845691
C         0.91783951993617    2.78323721274460   -4.65305866301192
C         3.19255802481093   -0.24252432194261    0.18959033053147
C         4.38866396312206   -0.90326394769814    0.81487540259273
O         2.04931884862048   -0.27840821897593    0.67448005009249
H         2.82527061778522   -1.40220422160504   -4.15060107122716
H         4.08565091475755   -0.05447591485224   -3.82733939772828
H         2.36127227049383    0.23526641001660   -4.06979217915492
H         3.64449093888942   -1.55248776076188   -1.96484624037531
H         1.92374868597481   -1.14166889821067   -1.85041552654036
H         5.08715027538278    1.48350196421490   -0.93895708918034
H         1.46252686991706    1.28499800373737   -1.52620774822123
H         3.82140049090648    2.31126021744183   -3.12865929135554
H         2.76206435858611    4.57441264946341   -2.85936463276319
H         2.54511687741271    4.87641165824919   -0.38954575272495
H         0.19039050032718    3.43890962337005   -1.71255609329326
H         0.28888305298383    5.12623669449381   -1.11050721318939
H         0.21111061663202    3.90837414208772    0.06085511519034
H         1.71533997520764    2.34588961872358    0.48898651930515
H         5.77760869331796    2.60353077992596    1.82219984683123
H         0.00565470722118    2.85942795721525   -5.19883850907769
H         4.06172407622653   -1.72909364375145    1.44431215538409
H         4.84679369885915   -0.13572618198846    1.44685220240073
H         5.01559577229452   -1.09249271705518   -0.06093242751225
