36
 energy: -50.520225768288 gnorm: 0.306953264790 xtb: 6.4.1 (79825abcba525fcdf90b791dcacef51065a7a4e7)
C         3.14094235425676   -0.51940558866555   -3.65677551064752
C         3.08880861520759   -0.84405788821627   -2.17106869419141
C         3.45984285591025    0.39759852152921   -1.27287938015498
O         4.81430594004474    0.80937845483465   -1.52380893376856
C         2.44874556404559    1.60522331511863   -1.40970405251943
C         2.75044667236161    2.46151940320564   -2.71408817561467
N         2.98878525650670    3.78295108576311   -2.12334362695868
C         2.25177564430533    3.95537550870380   -0.86267881302173
C         0.75678374211046    4.25990688813395   -0.97568136329606
C         2.51914123044542    2.58172609885407   -0.22429353126657
C         3.81054143736562    2.60648772870617    0.57700161700160
C         4.80844231612595    2.84164861309717    1.38257165501187
C         1.61735162483521    2.46212110871553   -3.72725183419164
C         0.53989348446746    2.65148109362891   -4.43666817732747
C         3.18487168906637   -0.17928804424892    0.15382441830047
C         4.33847099386877   -0.92272089146217    0.76598774831012
O         2.05048069985078   -0.15323531630700    0.65967009408386
H         2.97873063922758   -1.48820267962650   -4.15909068174318
H         4.12861796220860   -0.13336525859072   -3.92823156471312
H         2.42637336732325    0.21628664905859   -4.01682184659458
H         3.77267303334348   -1.68715615537025   -1.98820005965923
H         2.03601739254749   -1.03803185036271   -1.93052361577402
H         4.97510268824811    1.60719357495354   -0.99185762398992
H         1.44225474222781    1.18352657272831   -1.56609507037444
H         3.66016286707344    2.13241432657153   -3.21492284216523
H         2.88065868841928    4.63253968674734   -2.67422258168958
H         2.74779901532748    4.80160283739797   -0.37250896925213
H         0.20586515689173    3.32786739344614   -1.13898431475267
H         0.59755223498136    5.00951701547566   -1.75906594177835
H         0.38811161824926    4.69819327985017   -0.04105087070440
H         1.72313342551072    2.32824122531711    0.48385257384093
H         5.66217824522973    2.79419835372057    2.01906410729215
H        -0.26988868258818    2.70674255794346   -5.12729165053532
H         3.95218898047498   -1.90686407663252    1.02545528542932
H         4.70914426116632   -0.28352085674172    1.57371071864361
H         5.09256415328626   -1.00806458654430   -0.02138150153844
