36
 energy: -50.521151452821 gnorm: 0.303468147319 xtb: 6.4.1 (79825abcba525fcdf90b791dcacef51065a7a4e7)
C         2.70871661280394   -0.60153024550515   -3.59954740459859
C         2.69889578489634   -0.80281419990433   -2.09129341719130
C         3.35347792382373    0.32058368032207   -1.19931780475856
O         4.73879915143939    0.56594505026908   -1.49559720020381
C         2.47028346741008    1.62062483949931   -1.37036423752005
C         2.79889243424257    2.47852985897162   -2.66716785670647
N         2.94141240448303    3.84089996899282   -2.14218990345038
C         2.28484920620013    3.96188139026004   -0.83204587082201
C         0.77700151009913    4.17164945322861   -0.98338128813739
C         2.61118385674617    2.60075173744159   -0.19426488813134
C         3.99392183803958    2.72312004324489    0.42497917058385
C         5.15705644560527    3.07489104573401    0.89765763230583
C         1.62515227069935    2.28639397500873   -3.61364725016259
C         0.87132389521141    2.60939841581501   -4.62728217236816
C         3.21839789066861   -0.19929476586561    0.26880028899737
C         4.53288602645292   -0.62740823178290    0.85792461922778
O         2.08151409684642   -0.29154594188256    0.76112787670082
H         2.28042059185252   -1.47299386899375   -4.12329795717591
H         3.74203832856336   -0.48775577142251   -3.94235964109909
H         2.10714315854016    0.26209411691599   -3.87111250992521
H         3.27161718235038   -1.69925415704937   -1.80790010208737
H         1.67302897970372   -0.94164725315940   -1.72772792988736
H         4.97984104988085    1.35453721035323   -0.98046812596779
H         1.40807859987176    1.32611297108695   -1.38750040432619
H         3.71523702072824    2.20355682923030   -3.18815874900953
H         2.70623660352656    4.51058945620779   -2.87237351589117
H         2.65058143785767    4.86628117146000   -0.33133905349138
H         0.23117224103604    3.25237129024803   -1.21975985449699
H         0.50561334973527    4.96066289324197   -1.69385132242645
H         0.34425663420884    4.51396178337396   -0.03622639370455
H         1.85933929400169    2.38288865983287    0.57164590039338
H         6.13315918226898    3.04479867420826    1.32492464037195
H         0.23388279044633    2.48627449739008   -5.47242780358959
H         5.05214499716799    0.29270657145564    1.12028672013367
H         5.06904772813250   -1.18398467927869    0.08258918519162
H         4.33119316026531   -1.23226022953768    1.74638644588578
