36
 energy: -50.517536773388 gnorm: 0.305484983821 xtb: 6.4.1 (79825abcba525fcdf90b791dcacef51065a7a4e7)
C         2.77524722375018   -0.61534056860851   -3.58448370185527
C         3.04553710768193   -0.86249019320324   -2.10756047485627
C         3.42947267991199    0.39201766766996   -1.23296080547336
O         4.78374235400051    0.71651394350416   -1.59038830054729
C         2.45108744136276    1.61790305894192   -1.43136363408648
C         2.78432467832320    2.56772132812212   -2.66119398174386
N         2.97641058541616    3.88319479941295   -2.04103379870356
C         2.14624566634157    3.93398572749843   -0.82841859728600
C         0.63752891188896    4.04562327653789   -1.05605987659800
C         2.53056363240949    2.57112446390287   -0.22771756456625
C         3.90397127088295    2.71924690807488    0.40648492633442
C         4.94201999510193    2.85310541456353    1.18403664504449
C         1.72885019470891    2.61272085896073   -3.75405903027744
C         0.85607273545717    2.94136246871411   -4.66526647208364
C         3.26364928503416   -0.22008919850997    0.19592643307530
C         4.42055875402914   -0.93649142364502    0.83354387745629
O         2.18970541839591   -0.13530119693910    0.81468087982561
H         2.54834730777441   -1.58792345623375   -4.05331195183934
H         3.62754065248930   -0.14460567843032   -4.08470685563869
H         1.93953468744756    0.05784407421750   -3.75737748749813
H         3.87225405787743   -1.58943969129329   -2.10444975378012
H         2.24474161210956   -1.36755917683774   -1.55304349495926
H         4.99984857406756    1.59187076991049   -1.22654041790681
H         1.42153381855715    1.22386266015050   -1.43921034021902
H         3.72199552076687    2.27761055464279   -3.13378069823904
H         2.76929279910725    4.65587637601706   -2.67113313980695
H         2.54334505194850    4.73435864977660   -0.19271298352742
H         0.37857906534024    3.63968976186178   -2.03944165540012
H         0.34363924017348    5.10128742167849   -1.06884622146792
H         0.07577250986017    3.54737038866589   -0.25748485810743
H         1.84697584289860    2.29035142403006    0.58050775096175
H         5.55181230982823    2.90917185600328    2.05653255648797
H         0.18120410332463    3.24566543811148   -5.43189141612542
H         4.11127017160785   -1.98018104624120    0.84483751236900
H         4.58176579997852   -0.59021723900864    1.85945723758779
H         5.36074202575721   -0.96228271489917    0.27561862405348
