36
 energy: -50.522608195872 gnorm: 0.311789947204 xtb: 6.4.1 (79825abcba525fcdf90b791dcacef51065a7a4e7)
C         3.70805075444163   -0.24192589770904   -3.85440586294513
C         3.23251489634852   -0.67166574299251   -2.47432213921383
C         3.39984958036237    0.41608257226233   -1.34519691535364
O         4.80103419955636    0.73822719256957   -1.34695640849290
C         2.43677311154293    1.66784528891206   -1.41569618090811
C         2.78903706636374    2.69772454836705   -2.57368723942588
N         2.67281931873299    4.02176977449826   -1.95291049704151
C         2.06128677762504    3.92962114769907   -0.61884689557163
C         0.53628869953803    3.96558205254442   -0.50223902185078
C         2.48543278338716    2.52962041673476   -0.14341979768500
C         3.86162266045985    2.61713758184333    0.49598907518178
C         5.00443050156946    2.76883640363458    1.10510940836511
C         1.77400840762547    2.53496497401948   -3.69334410813031
C         0.77319318381409    2.61380733870668   -4.52532822118365
C         2.98467193551985   -0.37699171033451   -0.06357619463833
C         4.11759500405106   -0.94897544464896    0.74112723613437
O         1.79934901991284   -0.31471130597475    0.30321017472996
H         3.62013973853478   -1.07677297309181   -4.57029900026811
H         4.77231484287418    0.00677849498396   -3.91528855852586
H         3.11653216889609    0.55315566252757   -4.30098882426864
H         3.84858522634991   -1.53821688928382   -2.18888804351467
H         2.18249001557616   -0.98802742873736   -2.50925371875968
H         4.95336821709756    1.40011925148891   -0.65123376056624
H         1.43790498926927    1.20591463043489   -1.48044648346781
H         3.79861469711500    2.56401929937768   -2.96047526569641
H         2.23148144907052    4.66126769750037   -2.61110732257718
H         2.44968475448668    4.73002676974834    0.02217119962853
H         0.09753604585870    3.20840897396098   -1.16031333239895
H         0.15981838736707    4.91998789285719   -0.88738965402463
H         0.24325580495102    3.76262096718369    0.53433551608826
H         1.87050910705470    2.13185276248342    0.67083057685607
H         5.89281327638196    2.65429097830830    1.68294553890245
H         0.02655990644266    2.63866654114163   -5.28538252369513
H         4.88254555790003   -1.26905465861322    0.03580819592792
H         3.84559572568269   -1.82776616243816    1.33453688590232
H         4.49617879663350   -0.18247463038329    1.42306651733280
