36
 energy: -50.519125897159 gnorm: 0.309228991733 xtb: 6.4.1 (79825abcba525fcdf90b791dcacef51065a7a4e7)
C         3.89667798722156   -0.59953350248074   -3.67574878654883
C         3.00316490336150   -0.69545248364768   -2.44779288736272
C         3.33620884760986    0.37877059905730   -1.34269218630966
O         4.69864882855747    0.80167025655327   -1.52161048676933
C         2.35117444378150    1.61407402601661   -1.39862949323110
C         2.73020393041388    2.69266299263392   -2.50256198815265
N         2.82759693569975    3.97896649905843   -1.80406074650770
C         2.02364682103997    3.88718682917915   -0.57628640405403
C         0.52296379686336    4.11787224324358   -0.76402140780127
C         2.36291384561553    2.45968713002975   -0.11468556901588
C         3.70671886119219    2.56978412302493    0.58707528999182
C         4.77475939731677    2.92395660089656    1.24578703961892
C         1.72804516092213    2.74335555361610   -3.64427710983357
C         0.88627537791289    3.13844190103505   -4.55826573385610
C         3.10349555122955   -0.45831733094691   -0.04306945381499
C         4.34571932624650   -1.07108237765016    0.53970559301989
O         1.99116645398231   -0.67599168530708    0.46559874627164
H         3.84026921349657   -1.48196413183870   -4.33554815351336
H         4.94956299306344   -0.45782171600710   -3.41198836029251
H         3.60509294225868    0.26269089675177   -4.26991418000723
H         3.09540203221901   -1.71294254751978   -2.03775332674697
H         1.95751483911575   -0.46033201473468   -2.68272159036200
H         4.83402885667692    1.60908478468545   -0.99711951460949
H         1.31083082476013    1.25966709302993   -1.48460005315677
H         3.71646479473684    2.50566382771447   -2.92570485858955
H         2.45075120857885    4.66128328291381   -2.45933998661130
H         2.43111314466706    4.65209992843046    0.09549146429289
H         0.11753438145342    3.40439360564375   -1.48890207737438
H         0.21420545231192    5.12238081055573   -1.07481432207148
H         0.05515611306327    3.91232448210860    0.20574884589993
H         1.65133651908081    2.22211716604213    0.68316913484262
H         5.69784025119207    3.18735050528821    1.70923563713861
H         0.22580908962252    3.29423407563133   -5.38001682412584
H         4.16476268874649   -1.99536102793244    1.08563476976571
H         4.79568010630994   -0.27822155385927    1.14575737094689
H         5.09229283916765   -1.41042657096332   -0.18373332648986
