36
 energy: -50.520895222576 gnorm: 0.307220335048 xtb: 6.4.1 (79825abcba525fcdf90b791dcacef51065a7a4e7)
C         3.31547200179517   -0.62041876076235   -3.59527249499785
C         2.86714258859447   -0.79571649859136   -2.15176523364515
C         3.36528872904223    0.40598670120590   -1.26076529561461
O         4.75250215199658    0.67944967104564   -1.52144802593654
C         2.43867059563054    1.68157113282446   -1.37763914516262
C         2.78204054863873    2.57309855537014   -2.64766292085186
N         2.86279970427388    3.94154914123717   -2.12537274511880
C         2.22512357044100    4.02930519516269   -0.80330726539763
C         0.71659908536586    4.28351130611408   -0.81889099426795
C         2.44395894080253    2.64165297682963   -0.17683682464199
C         3.82107128078172    2.65335817875299    0.46645637978066
C         5.01897258819380    2.84436566441442    0.94457612763909
C         1.69613148606873    2.37727465336275   -3.69306229488216
C         0.71127210814102    2.59105759921403   -4.52034317395208
C         3.14979763067763   -0.19403015873712    0.16662192804877
C         4.33852226348987   -0.93767486078298    0.70713461572123
O         2.04523503040512   -0.08486142258233    0.72467670274564
H         3.10028143698437   -1.56255731009002   -4.12750265851967
H         4.40074667293907   -0.54121970843251   -3.71412124610242
H         2.80363529621082    0.14286941111919   -4.17570304148831
H         3.19481466981460   -1.76494421991024   -1.74537282877824
H         1.77222301077231   -0.72915714457539   -2.17580996797915
H         4.97671069691935    1.43309241548550   -0.94953029174314
H         1.41187795757276    1.29794090429392   -1.49526051058244
H         3.76154075024241    2.33824346572950   -3.06257435886716
H         2.58652331249592    4.70920449421183   -2.73474650277698
H         2.75976731176041    4.83192726617767   -0.28142583542665
H         0.28787957620330    3.45568754525226   -1.39315936853003
H         0.48800454386087    5.21462977035734   -1.34966811745044
H         0.42160236657098    4.28582609745810    0.23681721918731
H         1.71810493588941    2.25675234546062    0.54727737177227
H         5.89930628972778    2.73159113389904    1.53494354520869
H        -0.09150587623726    2.39747490597193   -5.19401595923032
H         5.29070425635870   -0.41468679797933    0.63707799218394
H         4.41500319682323   -1.88578754850142    0.16526309781649
H         4.09888519352452   -1.14056668255829    1.75465518952968
