36
 energy: -50.518306501180 gnorm: 0.312315466650 xtb: 6.4.1 (79825abcba525fcdf90b791dcacef51065a7a4e7)
C         3.20214226536312   -0.55666100706577   -3.60242373249701
C         2.93056882522956   -0.80012205929632   -2.12512337027646
C         3.40375431078429    0.42050546776234   -1.24632589535059
O         4.78589886592560    0.71897738669370   -1.50649798210885
C         2.42396345579008    1.65641931328314   -1.35551913973075
C         2.79879962460948    2.60981171143030   -2.57051924569371
N         3.04010679900972    3.90637134175513   -1.92812524212828
C         2.11047662410131    3.97478595149603   -0.79089338087608
C         0.64347420958240    4.18987216477056   -1.16792330998191
C         2.32666658421402    2.59660591836161   -0.14296241238016
C         3.69121613101963    2.69269189992730    0.51973935258099
C         4.90857955410829    2.55571993243477    0.96618633936686
C         1.70844823363859    2.61143860568485   -3.62954546103025
C         0.68823796989045    2.74449263845829   -4.43049017041980
C         3.24463961308331   -0.21407773464459    0.17349015262169
C         4.41729710238599   -1.01084236729508    0.67175534456425
O         2.17669809029029   -0.13369215431797    0.80312540327386
H         3.06734593838924   -1.43011976657544   -4.26280295344938
H         4.26476050662691   -0.35360999194961   -3.76925115488901
H         2.63159095407710    0.29039950781878   -3.97450565057776
H         3.49687179423970   -1.69262077030938   -1.81743332838951
H         1.86795384641302   -0.92395766435271   -1.88146103614385
H         5.15368508365562    1.39001366057078   -0.90668103910097
H         1.39748568801739    1.29781392912462   -1.53733123166575
H         3.67664317931694    2.31064503689609   -3.14202520169519
H         2.90978249580584    4.59938055014127   -2.66277726018004
H         2.46314086897009    4.76942798188448   -0.12262821473300
H         0.24373904628360    3.52920816697173   -1.94420395573947
H         0.44328956216041    5.18042359209273   -1.59182824084569
H         0.04188265998900    4.05261158316480   -0.26194571901145
H         1.71043574139714    2.22803334809496    0.68394007595618
H         5.85586698772681    2.88558718524497    1.32684316617651
H        -0.04258173157463    2.76744855740708   -5.20582064634108
H         4.03708482730003   -1.92178538902591    1.13077215935018
H         4.90927207517456   -0.43480009914301    1.46202598060651
H         5.06401786222695   -1.13911510932032   -0.20070596179387
