36
 energy: -50.516657208079 gnorm: 0.306441855563 xtb: 6.4.1 (79825abcba525fcdf90b791dcacef51065a7a4e7)
C         2.96837604199284   -0.78562724380193   -3.63617261448288
C         2.88800058796174   -0.91814691423694   -2.12242888055183
C         3.35837600001378    0.33804262015820   -1.29366118986598
O         4.68790011286960    0.64844989901959   -1.74434017160597
C         2.43823072182157    1.62253597964802   -1.34663119488941
C         2.77976266133784    2.49455959495320   -2.63061532452955
N         3.00107950982680    3.85502828963810   -2.12850986180281
C         2.25258856418794    3.97228511425156   -0.86827128246388
C         0.76061413380506    4.23928884681404   -1.07619203795650
C         2.52299114311584    2.62255421343468   -0.18194644703864
C         3.87460171515670    2.57241887550634    0.51162179585429
C         4.76505212085176    2.86496761857160    1.41802305323718
C         1.64905223923409    2.53851140379535   -3.64548849949838
C         0.72036788413489    2.80697933501582   -4.52042572341690
C         3.27461731313260   -0.13437808331048    0.19418762954970
C         4.45763188361123   -0.80858941814743    0.82991026799791
O         2.21648526082151   -0.00780751021560    0.83273124273673
H         2.85470286307980   -1.77389979909123   -4.11324360937766
H         3.96283092237599   -0.52594749605832   -4.01279516658189
H         2.34477391830710    0.01048105804358   -4.03469140833787
H         3.52684721411357   -1.76287995776558   -1.82205039130225
H         1.84077676995746   -1.10407146085173   -1.85296363126818
H         4.99252145200697    1.55098828997582   -1.54948884027010
H         1.36789098974331    1.37066109275700   -1.42563733273222
H         3.71388263263065    2.19154540392668   -3.10213558247945
H         2.79395465842347    4.59047459652539   -2.80169468126728
H         2.74981340139156    4.80208824135025   -0.35193748473918
H         0.22739205326581    3.44277049518763   -1.60544574820864
H         0.55852567918434    5.17377178198970   -1.61178826180767
H         0.29692456337143    4.22443090625237   -0.08305585360363
H         1.75434843124168    2.43983030446092    0.57644281772085
H         5.65551522333518    2.84065136581535    2.00344889324526
H         0.02269164744086    2.98843702337169   -5.30533511797793
H         4.44051082099026   -0.66574035027314    1.90897282928570
H         5.41028955925562   -0.43956060305209    0.43665102770993
H         4.41100865184746   -1.85484335388247    0.51515743549846
