36
 energy: -50.521749146486 gnorm: 0.308134580443 xtb: 6.4.1 (79825abcba525fcdf90b791dcacef51065a7a4e7)
C         3.39891639137102   -0.29538556474040   -3.85660119497665
C         2.99058186606458   -0.66617843204889   -2.43842725042012
C         3.35049064737560    0.38794961005325   -1.32245198408610
O         4.69849228872952    0.84448463656663   -1.52632922221846
C         2.44016060261724    1.68005290804437   -1.35657821412638
C         2.87542666249117    2.70714525049292   -2.48852753327776
N         2.84659664790200    4.02100326452848   -1.83667475848621
C         2.03360763675003    3.92830480308890   -0.61493625198013
C         0.53228254190844    4.10820575682505   -0.84767713378287
C         2.42939515724536    2.54055293354206   -0.08255501106148
C         3.75700279018528    2.63171556499433    0.65198488715278
C         4.84523223548482    2.79960881832742    1.35028166249501
C         1.94123091180945    2.57040673397735   -3.67973963087934
C         0.91357406955871    2.53658736571413   -4.48150174173872
C         3.15342234123592   -0.38073614396816    0.02446198127796
C         4.39907596694781   -0.96805870106166    0.62581622572346
O         2.00415107132337   -0.55794226575811    0.46169764744910
H         3.27117870573384   -1.23335394075726   -4.42325751265307
H         4.41844776475882    0.10028827883511   -3.90368215347269
H         2.77929709407670    0.46700283859826   -4.32170453329428
H         3.59381304686462   -1.55579873867161   -2.20049024936745
H         1.91496830033026   -0.87094148632161   -2.36782465089720
H         4.82558406818011    1.65764634842630   -1.00868797313876
H         1.42360564414700    1.30314417303210   -1.55624262580657
H         3.82463904028897    2.40101721354036   -2.92671763532698
H         2.61041925288812    4.80488388636623   -2.44224158044391
H         2.40194820512215    4.71499211429385    0.05428318012740
H         0.09030162785995    3.25451634464375   -1.37183743023117
H         0.27337008660550    5.06912709881650   -1.30654086486430
H        -0.01512800872674    4.10585730507832    0.10199882372599
H         1.72451315117252    2.13057629451062    0.64848152037278
H         5.77474045541326    2.63772229238464    1.84631232445880
H         0.28034755428724    2.38405287695817   -5.32501771501276
H         5.27726718268627   -0.40004566263737    0.32379574157408
H         4.37377109332589   -2.00367278986789    0.27190257510758
H         4.37865393733621   -1.09739234720572    1.71151697286504
