36
 energy: -50.507574465612 gnorm: 0.303082781128 xtb: 6.4.1 (79825abcba525fcdf90b791dcacef51065a7a4e7)
C         2.86631887171623   -0.32084208266249   -3.87529134186604
C         2.94289411208539   -0.74646814691315   -2.41638063622383
C         3.38349905642498    0.40960472626828   -1.43889210474536
O         4.74095237623281    0.82539040421290   -1.66591927959259
C         2.49359288355495    1.71628234523348   -1.43134794773919
C         2.95692313431950    2.94820185368115   -2.32206893502132
N         2.76003939278415    4.15259119475357   -1.50803626352053
C         1.84876145686955    3.83797411771201   -0.39773101921888
C         0.34542373290588    3.85644929871440   -0.68082830684088
C         2.25918863776424    2.39215622459750   -0.07048040183462
C         3.50404560710693    2.38052638007547    0.80164197183638
C         4.64712494492312    2.66483006577196    1.36074030484070
C         2.21326641672112    2.86567514202182   -3.64515978802290
C         1.97945727533117    2.62596416368458   -4.90528547813246
C         3.28582884570333   -0.25972990419169   -0.02951542561235
C         4.56110462055701   -0.68794650049149    0.64020833061044
O         2.12929153957282   -0.45680218040950    0.37912313326155
H         3.14750122500677   -1.15118833923062   -4.54511411439333
H         3.50739278845000    0.55441661435324   -4.02077355057318
H         1.87343902451921   -0.09323569970195   -4.25459360504250
H         3.67696233131715   -1.55043528537677   -2.25295833437108
H         1.97915199739043   -1.10180639620518   -2.03064362538460
H         5.13012709843014    0.40378298310907   -2.45085683640279
H         1.52334846848627    1.36644656124506   -1.82064316628431
H         4.00493576601228    2.74077022782397   -2.53507297517627
H         2.43963562376023    4.93244253711909   -2.07911688656580
H         2.16971570813940    4.50587293185269    0.41054238379839
H         0.04841664678121    3.09508551334463   -1.40951804616883
H        -0.11758531464537    4.76052917038245   -1.09219628839410
H        -0.21887903852982    3.66616937024054    0.23944566463227
H         1.50426659594645    1.89034269032130    0.54403550327894
H         5.53365644594002    2.63170333913881    1.95167493074004
H         1.31820714167503    2.48778543464598   -5.72955284472016
H         5.18240549284947    0.18243115202146    0.84393109573632
H         5.15353170881032   -1.27007769260172   -0.07291519615755
H         4.31652798165708   -1.27815795606858    1.52774597578018
