36
 energy: -50.520482477597 gnorm: 0.306500924857 xtb: 6.4.1 (79825abcba525fcdf90b791dcacef51065a7a4e7)
C         2.84677664558862   -0.46430095517723   -3.61111242602829
C         3.02994104146659   -0.85708149770303   -2.15247743708344
C         3.39517594907810    0.38623095147491   -1.25420203833132
O         4.73719347009922    0.81357744602978   -1.54310090063160
C         2.39556894045753    1.60220477785333   -1.40113681562153
C         2.79875878794373    2.55170512950391   -2.61009153652932
N         3.03922940570688    3.85705950217886   -1.98543968383890
C         2.17117508242255    3.97600355221589   -0.80454039350331
C         0.68546995386992    4.15299634400945   -1.12370109876681
C         2.35095287415354    2.56996102844679   -0.20733255573806
C         3.61323085110278    2.41643530041050    0.62542536668895
C         4.77232699564213    2.58357421882990    1.19867106837575
C         1.77179713592968    2.57949041255796   -3.73035181959537
C         0.81249912421764    2.88857020046589   -4.55755300732640
C         3.35253743067161   -0.20008429211671    0.19435149862270
C         4.58802898540332   -0.81426571619796    0.78980886116681
O         2.25134865946403   -0.26189185783880    0.76615969792334
H         2.73520040501218   -1.41724342502703   -4.15577045290800
H         3.78885486063282    0.04260971915574   -3.84295038342174
H         2.01864960734836    0.19348440513010   -3.86212895058921
H         3.88763848595876   -1.54670456165740   -2.12599556494785
H         2.14574810328840   -1.35979258056005   -1.74096607801886
H         4.73509478077890    1.72939044070828   -1.21657538258674
H         1.33627290390857    1.30769084177681   -1.48153282731049
H         3.73335735488554    2.17417878845259   -3.02328453747279
H         2.95969642580317    4.56426052455975   -2.71379467540469
H         2.62806275984384    4.75320668608475   -0.18034867992029
H         0.28917000582817    3.40883670997579   -1.82230653234646
H         0.56089372142254    5.13834952435406   -1.58686552795433
H         0.02711113593624    4.20998518341819   -0.24913595417010
H         1.53950434724305    2.38671919800500    0.50493680321581
H         5.71136190174023    2.39056872249909    1.66471994092248
H         0.18150166565172    3.04384260059481   -5.40223902304476
H         4.47552760257991   -1.88923208680383    0.65994068945841
H         4.59465543992302   -0.64082939710630    1.87067318198133
H         5.48510475380050   -0.47940013612922    0.26159443926464
