36
 energy: -50.518151137654 gnorm: 0.308480046675 xtb: 6.4.1 (79825abcba525fcdf90b791dcacef51065a7a4e7)
C         3.02478448293777   -0.53998579769812   -3.63729147405528
C         3.14142279557704   -0.83673900782809   -2.14941553471676
C         3.43001653688985    0.45078113199782   -1.28620836966896
O         4.77712465737804    0.83170717854768   -1.61376546530393
C         2.36216515702683    1.60527287250958   -1.44819168895412
C         2.78176413873872    2.57975689661797   -2.63140852548403
N         3.03739245285740    3.89370830362131   -2.03128190884230
C         2.18422556329025    3.95469936240896   -0.83521524289541
C         0.73851716990030    4.34396277677139   -1.14971636235010
C         2.36351124182313    2.54982255008331   -0.23512308209391
C         3.65729599253787    2.46068084463614    0.55770497536352
C         4.63379337809559    2.52497336160057    1.41931348521027
C         1.68339804084387    2.48854256696647   -3.67815454073826
C         0.72885376474952    2.70192494000973   -4.54033665248931
C         3.34131168630693   -0.11045416752287    0.17016978841402
C         4.43185658964950   -0.97583802139124    0.73589964878713
O         2.31833756430095    0.02763585953918    0.86144150701066
H         3.00043654724923   -1.48776838299267   -4.20148675987228
H         3.93474103003199   -0.08623295509917   -4.04263832384595
H         2.18447810111760    0.12620564872931   -3.81494115729269
H         3.91463561938778   -1.57054414523828   -1.87446442349274
H         2.20349223310803   -1.33647932337750   -1.87664630019692
H         4.97998915686544    1.63448670523390   -1.10413051762790
H         1.35969159128478    1.19102205502058   -1.64504968371214
H         3.74270266796505    2.25761345308473   -3.03084540315705
H         2.90576650002577    4.61358923834855   -2.73938205595409
H         2.53742955656878    4.74914030801558   -0.16699606204948
H         0.24478367685474    3.55713480998206   -1.72937638999600
H         0.64064369238283    5.27544135974952   -1.71868898285478
H         0.21978985858296    4.42796248478102   -0.18773181017499
H         1.57932111102337    2.24651698631750    0.46659301715609
H         5.47022330887821    2.37715000513936    2.06334177029999
H        -0.18218329883891    2.71087777399123   -5.09323184014577
H         3.89915614086067   -1.91777303323920    0.85448999242158
H         4.81065671842520   -0.57945273903527    1.68341266485597
H         5.21060804953106   -1.01530078961550   -0.03083317587576
