36
 energy: -50.515697656576 gnorm: 0.304027660617 xtb: 6.4.1 (79825abcba525fcdf90b791dcacef51065a7a4e7)
C         2.92483381432795   -0.66435770454329   -3.63507871875205
C         3.06704752700522   -0.81714880023441   -2.12780570966470
C         3.49983672732488    0.44238422728640   -1.28377303508558
O         4.86587252967792    0.82447258306958   -1.51840738593081
C         2.44744212965641    1.60463660246285   -1.48633513593462
C         2.77523760642300    2.49081240977819   -2.76419548960945
N         2.97043429687916    3.83019246980017   -2.19857598982874
C         2.26914004773723    3.99509793400617   -0.91670950683305
C         0.81625060472343    4.46170569358546   -1.02579285782375
C         2.45015864200171    2.59362705426577   -0.30921922962364
C         3.68636356237126    2.44970092369208    0.56341139334639
C         4.66522709421755    2.49126724764108    1.42373011219546
C         1.63416371159828    2.37259267988867   -3.76138146815499
C         0.49610841905400    2.72761718565426   -4.28942748481585
C         3.32084052505708   -0.06603982272017    0.18365884869532
C         4.48009407556804   -0.82440446114276    0.76610367520646
O         2.19149522370293   -0.09262353873189    0.70064435062804
H         2.58118872601240   -1.62685324551990   -4.05066428250354
H         3.90092864164563   -0.35368629740656   -4.02100720549236
H         2.11502122274396    0.02255145842056   -3.86712319401639
H         3.85983138549907   -1.55750412017468   -1.93993893344489
H         2.09938389163227   -1.16268716674865   -1.74298430278508
H         5.16401802010236    1.61613030717667   -1.03911200135014
H         1.47143902818717    1.12349824502791   -1.66306628665714
H         3.70568908603924    2.19047870979301   -3.24460031744052
H         2.84546708124842    4.55737324294928   -2.90039583139689
H         2.76804944487351    4.74808420199906   -0.29501227986721
H         0.23345033189626    3.68035149026732   -1.52449739010007
H         0.80794176647323    5.41623075119174   -1.56409973045385
H         0.42810932680131    4.55958430939481   -0.00534473230812
H         1.65011998380730    2.21340729361734    0.33477222577862
H         5.37747860682385    2.58661299479271    2.21103321304109
H        -0.41309123793827    2.76965059185639   -4.84381992317244
H         5.18976163708684   -0.14336633285508    1.23261629235147
H         4.89322603287971   -1.35155635934378   -0.09982046423294
H         4.27562334237301   -1.56277561230370    1.54641779849933
