36
 energy: -50.524925322151 gnorm: 0.302023041311 xtb: 6.4.1 (79825abcba525fcdf90b791dcacef51065a7a4e7)
C         3.25649868878470   -0.34845340065821   -3.84588093882075
C         3.07833850151287   -0.72338776975126   -2.38193936125456
C         3.46413366278160    0.38252961235457   -1.32636846649348
O         4.86879255720393    0.64541491340542   -1.48423960517025
C         2.47646197230627    1.61453850239777   -1.40418282743229
C         2.82538286754846    2.67137880228750   -2.53865507831935
N         2.81524658790034    3.97977867210025   -1.87536544431115
C         1.97596297019223    3.89267467555799   -0.67112085462533
C         0.45436440512763    3.98803400816198   -0.79821976537268
C         2.42786908348320    2.51458745974781   -0.15868614981277
C         3.80740299156350    2.65036181912242    0.46489473410740
C         4.91667204837886    2.56886177248293    1.14528419960850
C         1.88759592288052    2.62221566856775   -3.73387222033427
C         0.88827546787694    2.84994590840653   -4.53981414365221
C         3.17547233619585   -0.29926920490744    0.05048155345551
C         4.35696632464417   -0.74778620642175    0.86358187697463
O         2.00069892343972   -0.44797382045335    0.42624194080690
H         2.78868992774872   -1.10247612635205   -4.50147659495676
H         4.29717497571972   -0.27775734814867   -4.17786521905660
H         2.72643592635601    0.58576467449656   -4.01248023242570
H         3.67684244641735   -1.61151456881699   -2.12708649731332
H         2.01843018736103   -0.99225067304732   -2.29158291055706
H         5.10068690822597    1.20002779585461   -0.72006271718664
H         1.45547994732776    1.25516042212613   -1.61335541393378
H         3.83120870925359    2.47243871706757   -2.90671254244862
H         2.54051578354572    4.79306083426206   -2.42313809999125
H         2.33373004693336    4.69510552836371   -0.01498534803723
H         0.07800619520272    3.21423669292456   -1.47532313568745
H         0.16210644366608    5.00093548063249   -1.09751444553869
H         0.02796061657933    3.81918123805882    0.19737895194065
H         1.82894955982291    2.09459777299227    0.65633408881306
H         5.87503784888642    2.75092529638115    1.57496674752563
H         0.25615922323266    2.84278847825784   -5.39779993097042
H         3.97972931083009   -1.22233833617462    1.76777627676753
H         4.89983157409184    0.12191778530949    1.24738395565445
H         4.99436559179599   -1.43776724852149    0.30363660882688
