36
 energy: -50.517563778823 gnorm: 0.304707031617 xtb: 6.4.1 (79825abcba525fcdf90b791dcacef51065a7a4e7)
C         2.83824161274843   -0.53247166697800   -3.64460342082304
C         2.95372409146939   -0.86778155428480   -2.16484909834570
C         3.45670116052717    0.34828001886017   -1.29632771740098
O         4.82672803246688    0.62949281146046   -1.62956083549473
C         2.48014170146439    1.57972737311945   -1.46739892056630
C         2.84397283925820    2.62711954091009   -2.60594228518875
N         2.92416007649325    3.93296107196912   -1.94238069752807
C         2.10245252233090    3.85751790767026   -0.72529641728690
C         0.62888348506352    4.15604412440481   -1.00811458106024
C         2.38649418966242    2.44101406340664   -0.19730966364008
C         3.68370196320614    2.47285569146919    0.59429609936123
C         4.82501649422786    2.80484738714861    1.13023692431596
C         1.93996871428003    2.64592561094157   -3.82775577477744
C         0.90758297000654    2.87657238569469   -4.59000673257941
C         3.29980973459908   -0.18331415846503    0.16541222111356
C         4.49482821053721   -0.83563847951877    0.80151872843513
O         2.18181855961616   -0.17768003835769    0.70713676292798
H         2.51892070429413   -1.44509919317381   -4.17596594184993
H         3.87826346364211   -0.37081795091658   -3.94533795244755
H         2.16622933335096    0.28873641294765   -3.88019215891073
H         3.74217588473325   -1.61910555037410   -2.00428075773530
H         2.01054316477891   -1.18610021609140   -1.70339470852208
H         4.90024615053637    1.51917131246415   -1.24432842422652
H         1.51542643403676    1.07477197803051   -1.63960391615057
H         3.85330875534973    2.40376689335523   -2.94957532810722
H         2.64262153996812    4.71623917279731   -2.52904178979600
H         2.49656577233062    4.61090618312094   -0.03284627009071
H         0.22078854321279    3.35185251383607   -1.62909053356096
H         0.51065095742166    5.11843622189417   -1.51878466328025
H         0.03727599023850    4.06537307573070   -0.08978588956633
H         1.68797822242629    2.07566913343030    0.56292216733157
H         5.57808067762401    3.05874347654147    1.84063845348791
H         0.25208717616669    3.30423862465809   -5.31332451987723
H         4.28848995009197   -1.81657753522879    1.22608684584421
H         4.85379425208613   -0.17497111682767    1.59716548551793
H         5.23034969390176   -0.88944662632146   -0.00594842323876
