36
 energy: -50.516365148106 gnorm: 0.312351999062 xtb: 6.4.1 (79825abcba525fcdf90b791dcacef51065a7a4e7)
C         3.02836532273693   -0.80705658780842   -3.73041263436606
C         2.92413112304461   -0.83773219480876   -2.21263926764159
C         3.37225343125893    0.37150652716759   -1.30541870172049
O         4.75664949669774    0.66938740070020   -1.55404109248109
C         2.43889695712917    1.63981782947798   -1.44552034420171
C         2.90593392770883    2.60996550724775   -2.61444054756269
N         3.10738842349699    3.89165372934140   -1.92985491984803
C         2.24540234890124    3.92877944399783   -0.73914470359218
C         0.79410542021897    4.24378874459423   -1.10659006918526
C         2.42829528081444    2.50867984094578   -0.17718373067868
C         3.79549281161100    2.55410707017038    0.48546917210882
C         4.85260219508560    2.88260199014341    1.17442545303777
C         1.76124966968326    2.60891949139744   -3.61449166258262
C         0.67825420737010    2.64179228187607   -4.33980883675319
C         3.14276739983493   -0.17070169419469    0.14276545622774
C         4.35286034150582   -0.70823642039517    0.85337023913918
O         2.00489748374973   -0.05997876588420    0.62896909700054
H         2.79310446320299   -1.76569694024093   -4.22322290916163
H         4.07937574138064   -0.59190142519954   -3.94790742080586
H         2.38005258491313   -0.02453669845544   -4.11620854132259
H         3.54506586929225   -1.68661640059326   -1.88742886102246
H         1.89064150725931   -1.03334894954783   -1.90040461778520
H         5.03520472568843    1.50591412199149   -1.14420359214807
H         1.42929271841214    1.23587582109078   -1.62673899354306
H         3.77137098738273    2.27210682393421   -3.18329841453505
H         2.95042900609087    4.69883132114122   -2.53051110229338
H         2.69122346138027    4.63762039328048   -0.03119385596846
H         0.29329424789801    3.52778042950695   -1.76643628041697
H         0.58553705063867    5.18013966674443   -1.63640852668593
H         0.28886030861483    4.17884340734728   -0.13599348092447
H         1.67494866236800    2.22096646875595    0.56379116673996
H         5.87488111333364    2.92509076430220    1.47338990303075
H        -0.10279191972951    2.58551574519948   -5.06269311297516
H         4.92273283371664   -1.28382165670784    0.12603126990029
H         3.96216875786385   -1.27238677933615    1.70629825823711
H         5.02781225270093    0.06289213093504    1.23506519384530
