36
 energy: -50.516825375957 gnorm: 0.307066293846 xtb: 6.4.1 (79825abcba525fcdf90b791dcacef51065a7a4e7)
C         3.30767540717191   -0.42706730624622   -3.69812215204208
C         2.97546576382354   -0.66735120764185   -2.23274091691087
C         3.40202892489852    0.40683710629805   -1.16022779794963
O         4.79675099432313    0.63832471168241   -1.42149854643003
C         2.44844834247157    1.66343111880904   -1.26535565888014
C         2.70010405352438    2.51868127382000   -2.58099278788356
N         2.88427493632534    3.90969198689558   -2.15304843424286
C         2.23495397411249    4.08488667041485   -0.84542531187999
C         0.73036354617764    4.35288626945592   -0.91537945245376
C         2.54196260448996    2.73772899710543   -0.16952242538671
C         3.93652532203040    2.74903299147338    0.43501756995581
C         5.16151762941327    3.00460461001185    0.80125095208513
C         1.58757501568290    2.26980555097272   -3.58635112776105
C         0.60536865636293    2.42038309954286   -4.43053231922380
C         3.12434263569703   -0.32319676415826    0.19396265711367
C         4.23656844895810   -1.18294092484048    0.72501950372404
O         2.01354999499495   -0.26019763187004    0.74674860111241
H         2.93893802263306   -1.37087022004918   -4.13455058189347
H         4.37456990812746   -0.31784242653038   -3.91726748092037
H         2.78614415619306    0.42988839958873   -4.11659238731724
H         3.39793745419357   -1.65017326019543   -1.97292435936578
H         1.89046115913178   -0.77999961027480   -2.11470478930736
H         4.98164583898341    1.40565032341495   -0.85372917655841
H         1.42180686123507    1.26276649333646   -1.29337684411801
H         3.59660438648634    2.13627613552715   -3.06759584896053
H         2.47223422759492    4.45258037327666   -2.90965561683777
H         2.68710009648369    4.96862074113573   -0.37960955070359
H         0.24627086068626    3.78740114878869   -1.71834745280427
H         0.54444315809162    5.42898095836967   -1.00711408801043
H         0.33545005083765    4.09063140499383    0.07295954405632
H         1.87007538132954    2.60472942063585    0.68501404188781
H         6.03961063716442    3.40940445952490    1.24994791471767
H        -0.13912240503692    2.20122995355885   -5.16092039709449
H         4.32344022224332   -1.07095652484829    1.80436550173610
H         5.21342421689477   -0.97593239992010    0.27636371387266
H         3.88083197304265   -2.20203816423938    0.54956938192631
