36
 energy: -50.517259606047 gnorm: 0.299611812947 xtb: 6.4.1 (79825abcba525fcdf90b791dcacef51065a7a4e7)
C         3.41359697515782   -0.30729982203003   -3.78243130751556
C         3.03337348007003   -0.72430954716904   -2.36928773377205
C         3.32422923982084    0.32723428168339   -1.23096459053693
O         4.73204452565300    0.59465338523549   -1.34776247825415
C         2.44262723208418    1.63548059149989   -1.33424013797874
C         2.71160995024197    2.55338396268579   -2.60340764660520
N         2.90236867908108    3.88503684455350   -2.01836251442636
C         2.16350119875206    3.93334047823116   -0.74795677684698
C         0.67080584900529    4.22964426783804   -0.90471898378768
C         2.57971831759470    2.58600271660333   -0.13364650225699
C         3.94780535006801    2.79911643005231    0.49350738966527
C         5.18877551841343    2.71766379344346    0.88518127670389
C         1.61804408133705    2.59577243736983   -3.65826415621809
C         0.56829451746960    2.51032523442068   -4.42687941635759
C         3.02361327434120   -0.33515299924823    0.15278541981368
C         4.23281588818204   -0.86771624310728    0.86862975787782
O         1.86441457849902   -0.60467356524642    0.50918203565665
H         3.55939559183174   -1.16065161428831   -4.46634245158764
H         4.40983405547198    0.13978648259820   -3.70598428340275
H         2.67930104085864    0.35463581686938   -4.23424538319781
H         3.56042612187984   -1.63790875835334   -2.05388614534764
H         1.94301691615863   -0.84073425239490   -2.33153802516887
H         4.96905417259590    1.31201660596171   -0.73575496847280
H         1.39247424958586    1.30793871904755   -1.26209370710223
H         3.63307641295268    2.29651991200514   -3.12460768904341
H         2.74931310633146    4.70591962339838   -2.60118772487819
H         2.62402733476672    4.75104028897564   -0.18078038382146
H         0.18748747707269    3.46930700608815   -1.52694672533841
H         0.54633317019176    5.22446468687954   -1.34721226295684
H         0.18851669300894    4.26992768527282    0.07880664944028
H         1.93334415136299    2.26328595335638    0.68940164288125
H         6.05490645118002    3.19345514496076    1.28477986278833
H        -0.12312088920311    2.48829422520632   -5.23757118449156
H         3.91800830830286   -1.79574020831219    1.34270012289006
H         4.57930829623121   -0.13819017362130    1.60763346190432
H         5.07160806302487   -0.89156944904428    0.16738152579042
