36
 energy: -50.522122538660 gnorm: 0.311961573478 xtb: 6.4.1 (79825abcba525fcdf90b791dcacef51065a7a4e7)
C         3.59615497989073   -0.47401925048194   -3.70425369230510
C         2.95593912281862   -0.69523346956403   -2.34167169241098
C         3.28228973327798    0.43597049241910   -1.29286572606968
O         4.65134591171706    0.83202521584528   -1.48240317630398
C         2.35369444299960    1.71165167957053   -1.39158070085218
C         2.74846483936822    2.68955558561423   -2.58050659733431
N         2.82317738714489    3.98514534403996   -1.89652464198786
C         2.06408871253183    3.95518229635879   -0.63752673728844
C         0.56011274025634    4.14771320354895   -0.84123694078293
C         2.44496725627524    2.56033670874133   -0.11286480505939
C         3.78193328075058    2.57209592464250    0.61017399915337
C         4.96627952946704    2.66506333824975    1.14751087111097
C         1.66999804279391    2.60121664539615   -3.64798539361853
C         0.78400373754910    2.71390651615302   -4.59791165477890
C         3.19530097673850   -0.35070788369272    0.05526670279901
C         4.45677551210279   -0.92854353479278    0.63234177043503
O         2.07429160956846   -0.62398462125876    0.51576569781956
H         3.56669532990281   -1.45009238853806   -4.21768755579565
H         4.62277580236488   -0.10571310174099   -3.61141566952460
H         3.02126798059066    0.22823044263911   -4.30244728620694
H         3.19622472518540   -1.67024333514170   -1.89051234535405
H         1.88101069444532   -0.65414023671868   -2.55776752152477
H         4.85634152519267    1.48564194873317   -0.79240410343266
H         1.30754958678643    1.39684964283921   -1.53919738661421
H         3.69985690332071    2.43466020220231   -3.04592099375520
H         2.60080859283312    4.78456525837429   -2.48681244595448
H         2.46391206970062    4.77910585581301   -0.03445327240070
H         0.18151608445079    3.50123721704004   -1.63974187644007
H         0.23648931890686    5.16807950204969   -1.07593229410581
H         0.04700876246769    3.80626592777807    0.06523220881438
H         1.77762546060649    2.25060804898334    0.69835464649506
H         5.93558507824205    2.67290748579868    1.59093439651219
H         0.04904141927789    2.70889441324023   -5.36964156255661
H         4.39715188660804   -1.96443254492744    0.96166528665529
H         4.70903297396937   -0.34398143952241    1.52287255432063
H         5.26360604509830   -0.79137906892812   -0.09298627197924
