36
 energy: -50.522716217761 gnorm: 0.302131884755 xtb: 6.4.1 (79825abcba525fcdf90b791dcacef51065a7a4e7)
C         3.13604810365394   -0.43767401507275   -3.65432098259183
C         2.91498929472815   -0.81626528416436   -2.19718563222232
C         3.37314112477150    0.36315106102410   -1.25633758931464
O         4.76090608595452    0.64164860741850   -1.50861936572228
C         2.42428664539408    1.62180158348391   -1.37828159652833
C         2.82503791865395    2.58469411263791   -2.57741497532729
N         2.88761532955144    3.93881434364556   -2.01669351132429
C         2.14654849978934    3.93645637556012   -0.74665275695678
C         0.64490656536253    4.13473924717632   -0.96174606157445
C         2.46052416864037    2.55193577680872   -0.15466051901601
C         3.85029919311068    2.65805386790117    0.45169404449478
C         5.05192543316479    2.81755700609237    0.93200956842720
C         1.84322539935033    2.44487620799842   -3.72932664754674
C         0.90646886771564    2.78128047440331   -4.57156425405311
C         3.17606725264145   -0.31180328607209    0.13990359354704
C         4.34825961864570   -0.81151927484919    0.93644401784265
O         2.03892432601039   -0.45016535956753    0.62069813122120
H         2.87092902831046   -1.21720029294960   -4.38865852583692
H         4.16140313264428   -0.09122491963263   -3.81814625173330
H         2.55060562492598    0.44473506924457   -3.89946702105639
H         3.33491116537723   -1.79074516417120   -1.90396090664073
H         1.83091419362286   -0.96171161186028   -2.11067712426568
H         4.99073279162450    1.44944993671427   -1.01874851608116
H         1.39657624294282    1.24430546618555   -1.50719264629691
H         3.81156795158819    2.37072292545343   -2.98693163387483
H         2.44437606922571    4.60058784056835   -2.65116539550600
H         2.57715102820736    4.71891015896219   -0.11045004457087
H         0.30792978176922    3.42445498061883   -1.72386132182211
H         0.51299321168703    5.16021937985689   -1.32499635993479
H         0.02874030651435    4.02521365473083   -0.06180632016114
H         1.71980053235367    2.37232715200210    0.63173831572950
H         5.99308401215745    2.91038368393160    1.42378485057870
H         0.31252262084574    2.72040471563954   -5.45433476979805
H         3.90558145855731   -1.43759751010914    1.70919047696562
H         4.78205315250452    0.04318178107374    1.46531169472150
H         5.03340230561824   -1.25994390265371    0.21160940278769
