36
 energy: -50.519484553107 gnorm: 0.307701495620 xtb: 6.4.1 (79825abcba525fcdf90b791dcacef51065a7a4e7)
C         3.05341566515395   -0.45508504254016   -3.70015705294154
C         2.86402175507751   -0.82573900188583   -2.23653573477439
C         3.37982702081346    0.30611949230162   -1.26753504768237
O         4.71754487113503    0.69712749893225   -1.62069545380994
C         2.42119647388292    1.55621036087251   -1.40056368975649
C         2.82146511058238    2.45499097231699   -2.64862735189206
N         2.93429731818026    3.79152502516289   -2.05456363013200
C         2.23880431748510    3.97291552809693   -0.77176353596057
C         0.76531770793245    4.35678168657023   -0.92006626402745
C         2.38812162839336    2.54384448050951   -0.22277074171744
C         3.66099122979998    2.42014291567561    0.59875373359041
C         4.74562835016754    2.72602095529228    1.25453635435094
C         1.82411395441866    2.36583998688194   -3.79219550447556
C         0.83888237073604    2.73326117480740   -4.56314634322925
C         3.25875419522986   -0.23082348784393    0.19565480103487
C         4.54855655711589   -0.65885235981316    0.83708196916809
O         2.13194760208548   -0.35536522923217    0.70378641878174
H         2.90942520877466   -1.38139509674054   -4.28189359463243
H         4.00649291533666    0.06894981852707   -3.82364733328363
H         2.25047361139705    0.18745595137206   -4.05216614028974
H         3.52251799566601   -1.68523934100882   -2.03761858595840
H         1.84967023280452   -1.16685681173710   -1.99448862245221
H         4.96634701224442    1.51586728166982   -1.15906853303091
H         1.40381349454690    1.18407710637177   -1.60491333280721
H         3.82405618439216    2.26243469229478   -3.02870929314249
H         2.72279585883511    4.50319434668552   -2.75152394368015
H         2.75528370677081    4.75132126077300   -0.19753370462844
H         0.13654157579870    3.61226279152456   -1.41927458459614
H         0.66879894819601    5.25373266142552   -1.54225955366653
H         0.36308497238625    4.51788230973906    0.08681191516694
H         1.56615846931172    2.31930862519894    0.46520754293491
H         5.56258387714161    2.76874683694688    1.93790841930792
H         0.02136554016770    2.93028730469871   -5.21782848446081
H         4.75274908394021   -1.69415249351666    0.56962348376514
H         4.49131689360542   -0.58395242896462    1.92772644053908
H         5.30837364516754    0.03285825444160    0.46277622926440
