36
 energy: -50.519197623295 gnorm: 0.300772202984 xtb: 6.4.1 (79825abcba525fcdf90b791dcacef51065a7a4e7)
C         3.40149825194034   -0.38936621550518   -3.76650639135775
C         3.01640582662847   -0.77675709001628   -2.34626911885316
C         3.38138984699798    0.34734642442984   -1.30257423184453
O         4.71607823629320    0.83215434344068   -1.52766702827814
C         2.33504092426317    1.52334498585227   -1.44946755674006
C         2.76208913409804    2.53396499734048   -2.59923340899542
N         2.90919151193360    3.84093898290693   -1.94950578144778
C         2.18719533230291    3.89638092027689   -0.66972578862241
C         0.75674388592068    4.42008459822222   -0.81133385587380
C         2.25273807172332    2.42985506633297   -0.21044493290177
C         3.50525302266598    2.37783516237026    0.64914905439569
C         4.53589689329423    2.85385269987156    1.29042157104353
C         1.71220130805843    2.54704604915409   -3.69831021931459
C         0.70873113268298    3.01037250271477   -4.38999008564416
C         3.29313879338992   -0.40898459455604    0.06273381481466
C         4.57662727747764   -0.86557481063567    0.69709202403173
O         2.18338682523943   -0.61942253039838    0.58000349740328
H         3.11216470218637   -1.18948525164917   -4.46885715598463
H         4.47781951261615   -0.25533228225362   -3.91410746465199
H         2.88943372212775    0.47713206726812   -4.17694019880063
H         3.60743415024693   -1.68665904806826   -2.16001631019375
H         1.93967097152611   -0.97548151756250   -2.27550307616634
H         4.80458712395551    1.61476230228555   -0.95755500915121
H         1.38870531870246    1.03296602342712   -1.73104784250718
H         3.66225112775046    2.20533188776003   -3.11734318728027
H         2.73925488319503    4.62712046036745   -2.57400557970832
H         2.73355048435296    4.49003005410013    0.07289329986734
H         0.17969271315329    3.65409505090841   -1.33967912134650
H         0.71459706953691    5.33433075279697   -1.41410995753448
H         0.40654977534597    4.56250715182647    0.21756271649125
H         1.39512004995251    2.19189975615849    0.42769495303464
H         5.44570122964564    3.06763115712546    1.80305600811174
H        -0.03832606702263    2.91330380388373   -5.14381035921314
H         4.35560926140934   -1.80594339874299    1.19902125344835
H         4.94651041442349   -0.10047272254080    1.38716231094552
H         5.36302320479043   -1.11982875156853   -0.01902719585854
