36
 energy: -50.516058814638 gnorm: 0.304251769426 xtb: 6.4.1 (79825abcba525fcdf90b791dcacef51065a7a4e7)
C         2.88112833420243   -0.63896973769937   -3.60367716349746
C         2.85796344339938   -0.80902143725699   -2.09172889410946
C         3.35991554978510    0.38048203965968   -1.18660646147169
O         4.75215824034541    0.60936636646105   -1.46295919905681
C         2.42162150774455    1.62889468003036   -1.43250583867438
C         2.79322601546187    2.44387070490570   -2.74529243885981
N         2.98820473780562    3.81452715063071   -2.26026635605792
C         2.33322896049857    4.00719311369988   -0.95793165103104
C         0.83095142322679    4.28686185320708   -1.03180537947486
C         2.62812952077261    2.64832478636280   -0.30032738643659
C         4.02145684156254    2.78407202855457    0.29179865313834
C         4.98531513173455    2.83623669238537    1.16832929252029
C         1.60550725385354    2.26232920206725   -3.67629846158172
C         0.57913944478375    2.55134717470835   -4.42668672783326
C         3.22408702453836   -0.17835126480869    0.26706023836883
C         4.44418010227810   -0.70928925013908    0.96541930837292
O         2.07905739131718   -0.29983950064821    0.73348197155587
H         2.42906523938566   -1.50263790676388   -4.12031748278902
H         3.87026143325130   -0.47329507955404   -4.04229572704606
H         2.37339757105647    0.29071229104517   -3.84736972428361
H         3.39558186872139   -1.69541068841036   -1.72131468684401
H         1.79306452334614   -0.96985219144627   -1.88201256174423
H         4.89871194428197    1.53503449579170   -1.20412087015813
H         1.39035173772447    1.23936610845766   -1.42474621353360
H         3.71980637476372    2.15823843562069   -3.24187285778271
H         2.71979664194319    4.51378095158774   -2.95016561511653
H         2.82535679122190    4.78747843050810   -0.36516577868183
H         0.17847284946648    3.42118436557297   -1.18591883583503
H         0.60873854740883    4.97034350622432   -1.85911166018419
H         0.55378429957507    4.78390883043534   -0.09496444102762
H         1.99127147490129    2.42099444928596    0.56111713607701
H         5.95506118736728    3.12656328461350    1.50230875935692
H        -0.36286080955399    2.76908147767809   -4.87500478433499
H         4.72937442195259   -0.13174526989136    1.84301952586747
H         5.25824520196391   -0.78877017043695    0.23783938982576
H         4.16802289245575   -1.69547308373119    1.34891508154664
