36
 energy: -50.523881101409 gnorm: 0.289274919728 xtb: 6.4.1 (79825abcba525fcdf90b791dcacef51065a7a4e7)
C         3.26285311708345   -0.62268392038701   -3.64299558230782
C         2.87257532503373   -0.81669244668300   -2.18509102228559
C         3.34705406946770    0.35690914454131   -1.24506427881421
O         4.70306770828374    0.70924678424580   -1.56783939286326
C         2.37870010053441    1.59821490731525   -1.38944892130867
C         2.72616045123493    2.51488896461990   -2.64031440696264
N         2.87397610977798    3.86539893619654   -2.08692534609350
C         2.17885434245638    3.94476804983490   -0.79359809141882
C         0.69839532868083    4.31226162864141   -0.91064205980707
C         2.43447146703416    2.55458891516628   -0.18697245708772
C         3.73072645337209    2.47633970813782    0.60296527999147
C         4.96798108789676    2.66637464189362    0.96784553076652
C         1.60446071144419    2.47714111391550   -3.66538522864887
C         0.97008985795208    2.87895313220011   -4.73129589745465
C         3.23064312730881   -0.17659716938306    0.21976008929345
C         4.45127197468476   -0.77563651325809    0.85963877772435
O         2.12604921599166   -0.18692173816108    0.78823803617678
H         3.18083554692939   -1.57932308397406   -4.18642506126534
H         4.30649565039346   -0.31512478573281   -3.76314660839092
H         2.66311586062588    0.12493347441280   -4.15570282797452
H         3.39183304556544   -1.65990472955237   -1.70416417474336
H         1.78521268182707   -0.87727306212543   -2.05156330542115
H         4.79506680582555    1.65781460867325   -1.37524655455094
H         1.36595210383073    1.17166537802267   -1.47723876117967
H         3.66212065196037    2.19595341881010   -3.09746612422167
H         2.57303303559444    4.59801947389307   -2.72697236388700
H         2.70237049505573    4.66306393570415   -0.15142349943460
H         0.17837049767246    3.48193639021588   -1.39952950361828
H         0.62504486014377    5.21641919649586   -1.52552433591303
H         0.20983668713898    4.44723710439346    0.06128402979257
H         1.62851424723316    2.23007480610953    0.47971897274609
H         5.69211381124182    2.56855985544523    1.74392754342465
H         0.17353257112212    2.94269828800330   -5.43641633958353
H         4.38159121188272   -1.86060012974909    0.91507825216658
H         4.61994802883296   -0.37167950574730    1.86301251900969
H         5.30404152424849   -0.58853245187022    0.20110515664088
