36
 energy: -50.510080442061 gnorm: 0.315642408147 xtb: 6.4.1 (79825abcba525fcdf90b791dcacef51065a7a4e7)
C         2.87144757787174   -0.36632639727610   -3.82597759822815
C         2.98812024065257   -0.73913564248237   -2.35531702126931
C         3.39151572595389    0.41425599619314   -1.35878258291064
O         4.78254202279937    0.72661398072040   -1.54473134090584
C         2.45902864694682    1.68871888853469   -1.43367274050944
C         3.07373869858122    2.90312009887768   -2.25406641359421
N         2.57338297852651    4.16551728057998   -1.69912169968596
C         1.77030694917093    3.82610241233077   -0.51503742181798
C         0.26340180326455    3.92773089894670   -0.75879605339614
C         2.20537588122840    2.41033279165124   -0.10001422706236
C         3.51986265590104    2.50328023236649    0.65753900395158
C         4.64293964770619    2.61741977199426    1.31001134476691
C         2.57596273275025    2.83864667435501   -3.68880251999284
C         1.80070165846604    2.82500152651623   -4.73705293181478
C         3.32422650662342   -0.33842632591858    0.00973210488790
C         4.59971455939785   -0.95221805520014    0.51432859583472
O         2.26005347934266   -0.39671625697248    0.64812035303099
H         2.97168468074411   -1.25967908893320   -4.46556689050552
H         3.68742971773675    0.28397545362552   -4.15688435197439
H         1.98481114460934    0.23906643490841   -3.99586174211986
H         3.77674630769187   -1.48892944408612   -2.18857066087006
H         2.03865722820538   -1.19133803282724   -2.04244297374920
H         4.81892700803753    1.17756564149610   -2.40534477953469
H         1.50660406841137    1.50252065165864   -1.95667151148568
H         4.16285897350264    2.89305561139078   -2.23297558998164
H         1.88145230971528    4.56861267114778   -2.32817323943245
H         2.11883296468768    4.49858947973234    0.27786681299568
H        -0.08397794404862    3.20974341826489   -1.50892807610939
H         0.05596930093676    4.94988863225822   -1.09513924546556
H        -0.38307834134390    3.72144941414404    0.10205214798493
H         1.47559998802068    1.89915975409214    0.53676139357807
H         5.51639324011985    2.68829520224269    1.91688424766644
H         1.23112889041264    2.96699914322940   -5.62653892972299
H         5.39182201349205   -0.22199852452740    0.67059828354237
H         5.06861487064863   -1.64771707755489   -0.18909542501544
H         4.31923587004184   -1.53403118164071    1.39677721245994
