36
 energy: -50.518569065417 gnorm: 0.306057148212 xtb: 6.4.1 (79825abcba525fcdf90b791dcacef51065a7a4e7)
C         3.05348444831625   -0.49536267359448   -3.69806369634893
C         2.90388485771494   -0.86239979473650   -2.22893283326132
C         3.34893522706384    0.32086216805912   -1.28662589914814
O         4.73483981354711    0.61617608199144   -1.52984754088697
C         2.46154894296916    1.62165121418002   -1.42765701528135
C         2.80228833764932    2.54068697402954   -2.67863839428246
N         3.02812193711893    3.86282156542078   -2.08456313924489
C         2.30503908426702    3.99264738082688   -0.81079488176151
C         0.81231777128114    4.26028431409307   -1.01244627998208
C         2.48702219096044    2.58134657507614   -0.22680429002035
C         3.77849458399032    2.53414982687256    0.57336637185082
C         4.78160523780026    2.62060189539200    1.40182576064770
C         1.70443762191815    2.58001986506964   -3.72915354659427
C         0.62098807984923    2.74784045955348   -4.43485755146894
C         3.19031630084676   -0.21610006799945    0.17296395795464
C         4.46346427212666   -0.56645705257643    0.89030063568269
O         2.08368067720815   -0.45093567716931    0.68639490077883
H         3.05234071756550   -1.40978106704423   -4.31534699087894
H         3.99350989065833    0.06206633770870   -3.76006126281438
H         2.31657541208934    0.19945991896633   -4.09261648680809
H         3.62584501076604   -1.66657649181335   -2.01917214996500
H         1.92742519358077   -1.33141448484622   -2.05455130189276
H         4.81877340785589    1.58317160016264   -1.47317677464062
H         1.47404594981481    1.16395482913610   -1.60276250148634
H         3.74046771851755    2.30568240912524   -3.17995802798041
H         2.63278127702892    4.53467177583590   -2.73975993282119
H         2.73372524109857    4.79899310956346   -0.20380139055019
H         0.29183798916161    3.45728680660139   -1.54458588685852
H         0.62596669983314    5.17556476409999   -1.58559232658908
H         0.35256918692639    4.28135772627325   -0.01759181506122
H         1.68126646069133    2.32159427987018    0.46791893536586
H         5.66530264135045    2.56123371660713    1.99494761197062
H        -0.02619335468054    2.67271492738917   -5.27822824440184
H         4.72309500332025   -1.55656338287591    0.51968447021415
H         4.27125816919938   -0.62139939445348    1.96660444982097
H         5.26266037678970    0.13768137782153    0.64258098180183
