36
 energy: -50.518955779276 gnorm: 0.307174363555 xtb: 6.4.1 (79825abcba525fcdf90b791dcacef51065a7a4e7)
C         2.85413657314772   -0.58671097110667   -3.54332448891060
C         2.89604370096443   -0.89416944655123   -2.05364168720209
C         3.31780341901490    0.31385469296153   -1.13227450730731
O         4.69464098239392    0.59109405967260   -1.43977287563507
C         2.38477838311900    1.57459557008973   -1.33075138591469
C         2.72276991313498    2.42106053307686   -2.63265126141585
N         3.01425516070346    3.78599468378076   -2.18103502882572
C         2.28326411193204    3.94339105080881   -0.91491196637635
C         0.80017738469753    4.16708697142648   -1.21644742850529
C         2.53761920502034    2.60529285721251   -0.20025851148383
C         3.94567289148380    2.76852948040942    0.34850391348219
C         5.15399621384382    3.10042771441477    0.70884850466526
C         1.58400439249003    2.34038555493263   -3.63619998121850
C         0.76367183657592    2.77299742960950   -4.55268582230641
C         3.18066449098259   -0.11899871619323    0.36362715561593
C         4.35350459655712   -0.90303692983554    0.88127359608878
O         2.16774662106780    0.13081779061534    1.03815705842867
H         2.88101912109380   -1.53132644304256   -4.11269248009562
H         3.69670353135137    0.04682241428364   -3.83817190525878
H         1.95927324732466    0.00229215924684   -3.72711842063615
H         3.62700023032897   -1.66828502700746   -1.77368849988106
H         1.91918266652842   -1.25963123403901   -1.71299908779517
H         4.93409251459728    1.49409316762989   -1.17034324381836
H         1.36564935149309    1.15438690439867   -1.32022708456686
H         3.61378178029640    2.02938671103402   -3.12195541312156
H         2.71584701221015    4.45759353391221   -2.88592320365733
H         2.71991330027909    4.78175614313453   -0.35913519440388
H         0.44696636494462    3.23830133186977   -1.67631260089069
H         0.61648884774082    5.02438274725600   -1.87391521484146
H         0.16677412659887    4.32808629391850   -0.33643164127429
H         1.99921966052367    2.53524473611691    0.75083197101563
H         6.16767267580857    3.26020850264251    0.99723945978989
H         0.04382754830692    2.70570093374801   -5.33566550074410
H         4.00812313284191   -1.53065301468575    1.70095932431504
H         5.21127598698759   -0.31373994828130    1.22090435259082
H         4.75052392806469   -1.57688921710118    0.11695094720911
