36
 energy: -50.518496179855 gnorm: 0.306065098231 xtb: 6.4.1 (79825abcba525fcdf90b791dcacef51065a7a4e7)
C         3.21406749699324   -0.51233864138074   -3.62000901802241
C         2.88976937017554   -0.72408620962623   -2.14846715307924
C         3.35318217160350    0.39595047227693   -1.14005877283958
O         4.76542869769727    0.52879367582583   -1.37460303289933
C         2.51302715552611    1.72625459038883   -1.29441809413072
C         2.64449662835215    2.50505154078691   -2.67350312326489
N         2.95654868513822    3.85611400762399   -2.19473408130377
C         2.27412217732339    4.08126782099961   -0.91185102016200
C         0.75638771939518    4.08277797715541   -1.10417774525876
C         2.67834754976949    2.78400270570982   -0.19099187856370
C         4.11305875145082    2.93398278703022    0.28808150477587
C         5.32497335051552    2.82037542172221    0.75542107598993
C         1.45507862190012    2.35955976546998   -3.60866207000908
C         0.48773588013986    2.41155416359289   -4.48135294135527
C         3.09850991740202   -0.19119655687321    0.28622708463918
C         4.18476051678174   -1.00646565728736    0.92936283626434
O         2.01759319500408    0.08038109555409    0.83510422241349
H         3.18048768148716   -1.51357657270852   -4.08217346159719
H         4.22948705300377   -0.14771910578932   -3.80492615380859
H         2.46766838083704    0.07206699090336   -4.15183951880489
H         3.44717192961450   -1.60097982045387   -1.78475552564102
H         1.81034946109225   -0.87510275622386   -2.02235671203810
H         4.99187446053939    1.31158683455714   -0.84423151825259
H         1.45921608856153    1.42640636595888   -1.17242080626129
H         3.51860398427583    2.16109162346555   -3.22518868618082
H         2.75703607355288    4.49385407671900   -2.96313638050657
H         2.64295630515080    5.00953364091311   -0.45942389168851
H         0.39043363217334    3.18569639034067   -1.61427479001981
H         0.39859633509050    4.95163319001878   -1.66812575657817
H         0.18970571056761    4.07835541615207   -0.16588131229933
H         2.05571467005994    2.54986551016501    0.67898627016523
H         6.23381747190750    3.01111813451412    1.27873627594699
H        -0.35471854913674    2.33765538369712   -5.12986759882520
H         4.91985688803919   -0.32243714736775    1.34985459669746
H         4.73656784367264   -1.65022182009722    0.23691903463259
H         3.65923737695147   -1.58208716376129    1.69641934104679
