36
 energy: -50.515209355749 gnorm: 0.307710610690 xtb: 6.4.1 (79825abcba525fcdf90b791dcacef51065a7a4e7)
C         3.40140924918706   -0.40948737084912   -3.77681919281899
C         3.02638020922303   -0.77133248692436   -2.34718179023384
C         3.33153518235500    0.35891600852497   -1.29099059877444
O         4.67042035571563    0.82307361918355   -1.53397782510726
C         2.41618717891349    1.64509939961811   -1.37623511222101
C         2.73733307865009    2.69193029473627   -2.52805751449462
N         2.81780181166475    3.99156104160391   -1.85244609928604
C         2.10667375899581    3.98438045291541   -0.56542067086596
C         0.58709703550015    4.13157202386723   -0.66406626699496
C         2.42006000828782    2.54327774711474   -0.12844826806521
C         3.76866962065657    2.45172682263829    0.56672950542699
C         4.89681107875371    2.83866234759052    1.09363336389871
C         1.73068173918361    2.65432368016149   -3.66632117799123
C         1.04581646168482    2.81325548452060   -4.76438539245757
C         3.16134914919814   -0.37561667782740    0.07845796799080
C         4.40326017527163   -0.97321333783406    0.67742616060464
O         1.99753795748763   -0.64236611127605    0.42166306662274
H         3.53987787200947   -1.37512905651417   -4.29214777510771
H         4.36372609424608    0.10785701670791   -3.70959043656450
H         2.69561351396359    0.29538312100484   -4.20867013601604
H         3.63414629542066   -1.62471261574463   -2.00911537012549
H         1.99452126280492   -1.14384013434973   -2.32814653586088
H         4.75042942918824    1.69347625780451   -1.10814387950325
H         1.36702429515315    1.34324093153262   -1.52936502251918
H         3.69426003240659    2.44494783987594   -2.98633640142713
H         2.50130325967458    4.74451196958819   -2.46060178414519
H         2.57001470389275    4.71469546295433    0.10864276005525
H         0.19255227228030    3.66768002727436   -1.57401978628949
H         0.32514336117031    5.18609650625092   -0.80661381579445
H         0.07971813678237    3.74671458674834    0.22812186329689
H         1.61640235829555    2.24676876980532    0.55387916604820
H         5.71652953357615    3.08068932002315    1.73059790496874
H         0.41953986698143    2.71125615049368   -5.62061873316736
H         4.30638223319874   -0.90408552676009    1.75951257434759
H         5.32403216174791   -0.49762274900674    0.32474460321573
H         4.45156724576882   -2.05186432671485    0.50402248077236
