36
 energy: -50.515756838267 gnorm: 0.309984279242 xtb: 6.4.1 (79825abcba525fcdf90b791dcacef51065a7a4e7)
C         2.95111299548426   -0.67316085437900   -3.56167411306128
C         3.03783345002341   -0.87222749223934   -2.05558852618947
C         3.37442968449747    0.41362546903423   -1.20741037664011
O         4.74974433618583    0.72814168570162   -1.48433586808562
C         2.37345225073102    1.62665278294827   -1.36867174147784
C         2.80073098075250    2.47326173727721   -2.64396411517886
N         3.10666785583070    3.80346046822495   -2.10643267260416
C         2.25520334216457    3.97964678818168   -0.92061831487098
C         0.76127258674997    4.20152850943742   -1.16444024305584
C         2.47940700593529    2.63327302833400   -0.21143339141694
C         3.90482748423742    2.76295335801304    0.30019247791719
C         5.12138195953425    3.02022870762309    0.69243536962366
C         1.64978903983410    2.50386509930477   -3.63633573151503
C         0.57313977754794    2.42364113318419   -4.36738651936966
C         3.23461384831045   -0.09603319495297    0.26384436107182
C         4.16982662239645   -1.04401324389241    0.96021965171284
O         2.18863989089650    0.22841268210022    0.85042329345527
H         2.86079181752067   -1.67240885328254   -4.02052756547058
H         3.89263724326696   -0.29118407730587   -3.96891416280745
H         2.11624014401442   -0.04213550129851   -3.85540798665195
H         3.79195388660728   -1.65362521142942   -1.87490613938557
H         2.07950262049381   -1.26999100726707   -1.69887662055165
H         5.06677074280267    1.58016722275052   -1.13954102202553
H         1.39106822837091    1.16253221827922   -1.55528305588646
H         3.71572967793778    2.11246394931865   -3.11229241565037
H         3.00407881748245    4.58932630536108   -2.74584658015723
H         2.64587471932351    4.76969854827345   -0.26823771234861
H         0.29126572626644    3.30062930881872   -1.57230167027871
H         0.67653882933200    4.99416143207622   -1.91644732856459
H         0.31412980731781    4.48759862325679   -0.20539098460826
H         1.81696902784412    2.42886733474162    0.63635675713715
H         5.99612145246218    3.35102106459690    1.20394924436239
H        -0.26440054161834    2.66535592960793   -4.98046232112737
H         4.39533752131835   -0.70832086571228    1.97092754955721
H         5.07286118772224   -1.17904552729765    0.35632678351866
H         3.62579235909000   -1.99227645986658    0.98693969675253
