36
 energy: -50.512239101004 gnorm: 0.301803724571 xtb: 6.4.1 (79825abcba525fcdf90b791dcacef51065a7a4e7)
C         3.09851304748283   -0.49157050198106   -3.80152545390078
C         2.89877843997389   -0.79948462431514   -2.32479367656446
C         3.37032172124680    0.39871945957750   -1.41480744746339
O         4.72079840644157    0.78007680014421   -1.72766183801799
C         2.42207221451705    1.66295959038586   -1.37103449921960
C         2.87807192447837    2.86641843825179   -2.30346976608847
N         2.66433554780096    4.08229854391264   -1.51105673154116
C         1.72447959549619    3.73949052430757   -0.43340067277099
C         0.25267082040917    3.71050250232769   -0.84987198572229
C         2.27905513263718    2.36798056481159   -0.01228400815695
C         3.66219171787404    2.57830301503158    0.58193754953907
C         4.64944811746081    2.64569929223939    1.43095608613851
C         2.15295235448020    2.92078924041806   -3.63825468603348
C         1.87889146587477    3.28016415747034   -4.86127762014216
C         3.33188556128651   -0.20876718399903    0.02511392659631
C         4.59338130635024   -0.78522209576583    0.60352197961064
O         2.24401287114704   -0.36976291546146    0.60305412213816
H         2.35167767436963   -0.94459737083858   -4.47547244623328
H         4.08954733871842   -0.82336789040590   -4.12707138398588
H         3.00914777138689    0.56759538323094   -4.02882864297077
H         3.47823929421430   -1.71690222021079   -2.13906207779781
H         1.84141587007027   -1.00689440451894   -2.11785709288882
H         4.93716913230476    0.64566028306209   -2.66598622511961
H         1.41048384866117    1.26374685991472   -1.55166736959658
H         3.92395129678968    2.74242617559650   -2.58184241092080
H         2.27098482994515    4.79554035521116   -2.12222046300891
H         1.89132407255988    4.47306468351675    0.36437011695886
H         0.07831596316409    3.09144275714034   -1.73601090076308
H        -0.02914897702141    4.72040501117981   -1.16867590585261
H        -0.39932422696448    3.44947428265441   -0.00825747747109
H         1.66167948264176    1.79976114485932    0.69151135428002
H         5.66326301608442    2.67589844677444    1.75883807002436
H         1.53545844031069    3.26505557236610   -5.87003292507168
H         5.43403684873389   -0.09366076640962    0.61430060561445
H         4.85672040085852   -1.63891504347147   -0.02913323138472
H         4.40908682010260   -1.02407021518025    1.65465350476857
