36
 energy: -50.517977656582 gnorm: 0.312217978460 xtb: 6.4.1 (79825abcba525fcdf90b791dcacef51065a7a4e7)
C         3.33971137146003   -0.49740173886727   -3.77324909595178
C         2.82508794473472   -0.70541061777271   -2.35644395365513
C         3.34839110832162    0.28796981906137   -1.24943438377637
O         4.76542003140413    0.44393444209944   -1.43598909369593
C         2.51367920894455    1.62658654453022   -1.35315358323450
C         2.90151416126782    2.62127177799183   -2.53038332441845
N         2.72951935281620    3.96507482320362   -1.96773131386715
C         2.05988049129408    3.88505672566977   -0.66106761111875
C         0.53537021587369    4.01197663681411   -0.64465186492580
C         2.70269494278373    2.57987619717982   -0.16184200856167
C         4.16736446993964    2.81637408285148    0.16863264577040
C         5.37993116424537    3.07222851134423    0.57393553704389
C         1.92378609763761    2.39507397876348   -3.67199964358712
C         1.03278806604233    2.71777081546189   -4.56756321717983
C         2.92654395517970   -0.37218896137923    0.10338723137347
C         3.98931351520423   -0.51960307589214    1.15553627851543
O         1.73788778378682   -0.67878373647982    0.29443081002380
H         3.03170781363363   -1.36937429146653   -4.37491233055106
H         4.42338397389950   -0.34370898824519   -3.78908763083045
H         2.95786461399184    0.40084165902177   -4.25161832472203
H         3.21141671528904   -1.70086844551825   -2.08860078683191
H         1.73625198422053   -0.82826707429881   -2.29987784686409
H         4.92047970973144    1.25278508944235   -0.91921652697348
H         1.44631139514668    1.35207748452797   -1.37924581857925
H         3.90371037291758    2.46393394190758   -2.92734257523886
H         2.18073441971339    4.55780420419617   -2.58778514851332
H         2.46530340499992    4.74014762884784   -0.10711980810294
H         0.02130632018779    3.37280568243490   -1.36996252996530
H         0.25985389061929    5.03578252047398   -0.92191289820211
H         0.18330502568992    3.82444886982062    0.37634357640702
H         2.35117177213043    2.21736578913277    0.80994581973297
H         6.39781397053476    3.14633797681944    0.88160677222027
H         0.32815598370852    2.76058350154278   -5.36595065843521
H         3.68585463963641   -1.19754557183017    1.95138907864572
H         4.28230663722483    0.47551133656105    1.50524198720508
H         4.88354225048954   -1.02884719531765    0.78551497820096
