36
 energy: -50.514620657105 gnorm: 0.302460241513 xtb: 6.4.1 (79825abcba525fcdf90b791dcacef51065a7a4e7)
C         3.36575308592610   -0.46767915797320   -3.71120153470354
C         2.87871111278098   -0.73433941120371   -2.29447142672761
C         3.38040962964790    0.35526951926089   -1.27115718447954
O         4.76521929117394    0.68795488904126   -1.46793430733286
C         2.53220875197357    1.68501269553002   -1.37948397559150
C         2.87697139369442    2.65319583412990   -2.59169048532189
N         2.72903575412817    4.00287239690715   -2.03630383851688
C         2.06260249018837    3.95982750706616   -0.72626454147099
C         0.53722763180533    4.05791151216807   -0.79045790262699
C         2.54955659563413    2.61660581856854   -0.15655934277342
C         3.96708254366335    2.72578920376189    0.38112154418944
C         5.08794537313240    2.90345389746591    1.02311194675839
C         1.78295617896884    2.44318763434143   -3.62582426068985
C         0.93087741176168    2.54893604811561   -4.60706015455151
C         3.13722361431061   -0.24628438202838    0.15112422615752
C         4.25128453227954   -1.03903392132747    0.77453749687822
O         1.99852852038964   -0.15695035294648    0.63979017483364
H         3.21858629008262   -1.34669231218032   -4.36149283856560
H         4.44638359979614   -0.31643279062628   -3.79826965189642
H         2.82297162383867    0.36818162384418   -4.14503365106646
H         3.24727663829422   -1.70701518769617   -1.93393370531343
H         1.79873188008141   -0.72858354016447   -2.10090254264096
H         4.90456726045500    1.60369392643144   -1.17239934741154
H         1.47672640853605    1.38093008255507   -1.47329688034698
H         3.88019038564672    2.59664376826375   -3.01250230283615
H         2.43943112778436    4.78396089104198   -2.62195705633204
H         2.44737007026937    4.76286479592395   -0.08634940986883
H         0.05402129127142    3.30041598807767   -1.41622856455884
H         0.25677059682073    5.05090253412009   -1.15961111473744
H         0.05131106812268    3.96318756370106    0.18753019383207
H         1.88058230545442    2.20299837922422    0.60551427159568
H         6.07713416417588    2.63269372860684    1.31368669401260
H        -0.02002992445490    2.51121761081347   -5.08676251131366
H         3.70621649980670   -1.76240079869353    1.37845487648020
H         4.97412259865372   -0.40595676477635    1.29904696888841
H         4.88464155022635   -1.58003939159262    0.06597392680373
