36
 energy: -50.510861051909 gnorm: 0.295464841462 xtb: 6.4.1 (79825abcba525fcdf90b791dcacef51065a7a4e7)
C         3.37018012203929   -0.31994268640677   -3.86608084209887
C         3.05497806363276   -0.70962353231226   -2.42933511487590
C         3.48827666103008    0.39155462204379   -1.38732739823025
O         4.88413506969844    0.69087807534563   -1.55786584246026
C         2.52900362384155    1.64697679206769   -1.44306569709720
C         2.84027984518721    2.74829162327013   -2.54574301068515
N         2.79026703022063    4.01358964774192   -1.80514477756151
C         2.01813904262520    3.87262883913936   -0.56170698276234
C         0.50988884029313    4.01682047237150   -0.77360277186032
C         2.45223236420615    2.45865256457923   -0.13960876764842
C         3.70575222966794    2.41970855791641    0.71921186809231
C         4.51210328998390    2.60752804630266    1.72647137822200
C         1.81245938545535    2.71640735342151   -3.66510617967388
C         1.05635085191328    3.06816443598360   -4.66740936894610
C         3.23961109479587   -0.44017350748557   -0.08721789826290
C         4.36435866201747   -0.70046420832144    0.87476928222147
O         2.07830059195154   -0.78422874593695    0.18916120641217
H         3.07224945003899   -1.19834760091094   -4.46344429600719
H         4.43782511558101   -0.12970776678645   -4.01495486396876
H         2.82023302935419    0.55413645318528   -4.20524027698769
H         3.64338035588164   -1.61327342821670   -2.20769175904548
H         1.99050387926986   -0.93359972480644   -2.28585493900044
H         4.94691295146714    1.06535050149091   -2.45294466297746
H         1.52327253165455    1.22759896853408   -1.61021020095313
H         3.86231567918548    2.65262863423065   -2.91046266858274
H         2.61462120690630    4.78729705890476   -2.44349042110143
H         2.38654539061033    4.66828677944496    0.09678489773636
H         0.25443882612384    3.40924295391942   -1.64794344465182
H         0.23284644845530    5.03126957253333   -1.08198881244629
H        -0.05773122808855    3.75951533895394    0.12814540721670
H         1.63760494550842    2.12157588407790    0.51009532111918
H         5.30884148533116    2.84099596901041    2.39500723836193
H         0.11888050702586    2.91835585377258   -5.15162889085104
H         5.26465243320261   -0.12432001487745    0.66836194346381
H         4.59779961920867   -1.76993323661500    0.88630455949130
H         4.04530692108159   -0.44157679361254    1.88821571040127
