36
 energy: -50.521711148613 gnorm: 0.308336033782 xtb: 6.4.1 (79825abcba525fcdf90b791dcacef51065a7a4e7)
C         3.32783853823773   -0.52701223945384   -3.73042387150864
C         2.90670649774734   -0.81915493894950   -2.29768445995721
C         3.34454271457927    0.31967446396618   -1.29894120372282
O         4.72304487205905    0.64087452255254   -1.55125232035069
C         2.40014982667778    1.58118328075937   -1.42588169655230
C         2.79536325726117    2.59149192873327   -2.58724609302102
N         2.95606053520219    3.91716348802045   -1.98000859284268
C         2.23804840667465    3.98376591652795   -0.69852046673661
C         0.75663276513395    4.33835191280523   -0.84059857819307
C         2.44748957448540    2.53633260878146   -0.22207105913963
C         3.78549263423370    2.52459751980120    0.49904730084634
C         4.85733942732841    3.00025854829899    1.06908323209734
C         1.68814798422428    2.53299450000761   -3.62698535975480
C         0.77646475820952    2.49569578545438   -4.55837534290988
C         3.16807849669720   -0.35221790711790    0.10152727040483
C         4.35288589332466   -0.81045357324277    0.90432186505698
O         2.01143522219632   -0.49092751028752    0.53319551095379
H         3.08963398873344   -1.38831119099184   -4.37743521628334
H         4.37828033704076   -0.23613051355334   -3.83131231034596
H         2.65907138733990    0.29082270451498   -3.98612246951991
H         3.41759040610630   -1.75324654566428   -2.01769042185080
H         1.82736505724994   -0.94664950292344   -2.14727045810900
H         4.87302570237143    1.52886805007880   -1.18476903592148
H         1.34113704735392    1.31782808970707   -1.58223396736128
H         3.72670806760011    2.30758685186456   -3.07583980767908
H         2.78098032549889    4.68957683716505   -2.62007445246153
H         2.66971006984582    4.72433840841315   -0.01468792805662
H         0.21927473713213    3.62501319790173   -1.47405811638120
H         0.66489827977523    5.34599459599513   -1.26155275725518
H         0.27147133387215    4.30820176427788    0.14187666660095
H         1.66561063899374    2.25244148061188    0.49026669474100
H         5.81516986035789    3.10804293538674    1.52425640054143
H        -0.00743723075722    2.80018460438274   -5.21300959464366
H         4.06986704424438   -1.51362680868974    1.68568140090518
H         4.78178293884743    0.03488822596227    1.45189497356076
H         5.11318374610839   -1.16174181705672    0.20116177732986
