36
 energy: -50.517180334989 gnorm: 0.310425303946 xtb: 6.4.1 (79825abcba525fcdf90b791dcacef51065a7a4e7)
C         3.15129141370777   -0.73695814693111   -3.50375466806891
C         2.89022221596620   -0.84384319588278   -2.00847534910180
C         3.39692233148508    0.37381555332849   -1.14436699299984
O         4.81147190068061    0.52596368372433   -1.35172912281133
C         2.45363591053430    1.61397524798457   -1.41196932138015
C         2.78761902023704    2.47155940455183   -2.70761170534092
N         2.90566864293447    3.85336410548846   -2.22944211630426
C         2.22144509611245    3.97925697626148   -0.93399692225482
C         0.74892056639219    4.37169544374521   -1.06880523651173
C         2.57567530124744    2.63726155785627   -0.27104738329358
C         3.97292261842699    2.85044187457625    0.28810882181253
C         5.20849287408536    3.09658241439275    0.62401189955362
C         1.63518844003741    2.39498278588707   -3.69576410245139
C         0.54990656346597    2.58978234932957   -4.39165287878257
C         3.12558279653503   -0.19362474946231    0.28681340428095
C         4.29056663481448   -0.91986128266916    0.89805872299027
O         1.96849154222678   -0.15811824733505    0.73767992769447
H         2.81976406629012   -1.70737798588796   -3.91066489026701
H         4.21579773463283   -0.64013848123799   -3.73970143126729
H         2.54393217310603    0.06141361690047   -3.92232670392507
H         3.33433095653172   -1.71438772924054   -1.50167577155988
H         1.80172928318658   -0.91931276621547   -1.89295622983522
H         5.08276921379858    1.36694636544692   -0.94616451585878
H         1.39811563694121    1.29832139544271   -1.45133508650604
H         3.73596817354223    2.08854550765435   -3.08266278238725
H         2.58737018224891    4.57415443799506   -2.87450580213365
H         2.71597004017765    4.78839816325525   -0.38341361502919
H         0.13015478490798    3.54802293447812   -1.43970854496075
H         0.55325628057222    5.28011642609533   -1.64970816944930
H         0.45007717747747    4.71063537763605   -0.07012580589622
H         2.00092167504367    2.36350502525358    0.62005841638487
H         6.16588059812562    3.22073337777740    1.07593501157661
H        -0.36094711162576    2.78011497069353   -4.91115346285100
H         3.93461833557873   -1.63045252250717    1.64199144783022
H         4.96537517365995   -0.13909603277621    1.26334054697967
H         4.78669772630166   -1.51366968647127    0.12531304019611
