36
 energy: -50.511932910617 gnorm: 0.310871533143 xtb: 6.4.1 (79825abcba525fcdf90b791dcacef51065a7a4e7)
C         3.05332114491570   -0.61199908514497   -3.67195260896182
C         3.23128963132557   -0.88748818748357   -2.18606070749128
C         3.37783380164699    0.40174546279262   -1.29022452997239
O         4.73480648328667    0.81294225042518   -1.52821809829673
C         2.37379336163128    1.61020124478571   -1.46610443372714
C         2.79141813596830    2.62936308982293   -2.61178466273979
N         2.98198202935051    3.93164727179153   -1.96393636574898
C         2.14479577749303    3.93750932245599   -0.75510472449587
C         0.73482810921526    4.39763366711639   -1.13031995164233
C         2.35169050344695    2.51036935171488   -0.21994225974006
C         3.57802257634304    2.43009977680522    0.67452291617466
C         4.71851136035488    2.64794366307466    1.26771701871257
C         1.62054922192614    2.54675119608359   -3.57752100084078
C         0.78595755119769    2.87229007570772   -4.52489950198402
C         3.29458630290649   -0.20717705979241    0.14719474022354
C         4.47708212302890   -0.85184963486939    0.81377449840816
O         2.18317834793187   -0.41137215465399    0.66341002228625
H         2.81232610729359   -1.55546255227215   -4.19060379088972
H         3.96375356685808   -0.14613112726737   -4.06220698745938
H         2.28192168852824    0.11783846617088   -3.90382605229381
H         4.16183926960978   -1.44398647205437   -1.99550049425347
H         2.41114474806575   -1.50901450818898   -1.80537109572258
H         4.68857571409629    1.76792717849629   -1.35157364939107
H         1.40644553739649    1.14237272699993   -1.71244712078880
H         3.68247898972035    2.28899844855350   -3.13798951599824
H         2.79696224444596    4.72353293244469   -2.57683485020888
H         2.59688904962070    4.68121318601561   -0.08807955154467
H         0.27452239205289    3.81947714597733   -1.93823729793718
H         0.72405458337369    5.47560986234604   -1.32732924919604
H         0.19126795021506    4.24073150492908   -0.19145237928776
H         1.46977398565443    2.27563071756978    0.38542947050060
H         5.70044035467613    2.70376656897590    1.67873823859666
H         0.06978890997821    2.81198770039996   -5.31180985212144
H         4.73666319986079   -0.42715519312103    1.78193114414948
H         5.35072825231034   -0.92058677749484    0.15771856551083
H         4.14832645888773   -1.85957629720790    1.08265561812029
