36
 energy: -50.519631022010 gnorm: 0.308551339480 xtb: 6.4.1 (79825abcba525fcdf90b791dcacef51065a7a4e7)
C         3.14867703161189   -0.87525493039963   -3.50461786289259
C         2.76022282797406   -0.94895462137825   -2.03522565119450
C         3.26197971505046    0.35627365476919   -1.30670643462238
O         4.60553814304539    0.62021232276046   -1.74521040430854
C         2.35880848402644    1.64291296085016   -1.47474623345398
C         2.69522427085227    2.54930702468975   -2.73607834633027
N         3.05135179137734    3.88399598193906   -2.24237330944890
C         2.46582610104398    4.05488908742231   -0.90441055304045
C         0.98371241844493    4.43319238442535   -0.93152852356330
C         2.55708344314861    2.63588992469296   -0.31785594617379
C         3.86333123742255    2.54992910393454    0.45462641804424
C         4.89101028580355    2.69942915758522    1.24302695174599
C         1.55689924724315    2.52244059981872   -3.74300421650733
C         0.50190272290349    2.12438933273082   -4.39766621540437
C         3.19541054164885    0.02157180195157    0.21888662464266
C         4.46993773288844   -0.50352914744827    0.81728207406461
O         2.10066755976289    0.06759880655549    0.80439565232807
H         2.86066036576205   -1.78807352115443   -4.05326127459670
H         4.24098305596338   -0.80590426389575   -3.52125116806766
H         2.74715703628243    0.01366051598569   -3.98430139686827
H         3.15086809795151   -1.83867434749243   -1.51780778704482
H         1.66780398777798   -0.95238598062454   -1.93291978525591
H         4.86373603300603    1.40397410736961   -1.23102359698199
H         1.30309093442291    1.33063510144522   -1.41771065009823
H         3.49849036151183    2.11171985909940   -3.32769489196499
H         2.75112478927718    4.62662750657502   -2.87111963195138
H         3.02840619306925    4.76588105142733   -0.28764445338507
H         0.43311565846312    3.57520014593304   -1.33098977445373
H         0.88699346541883    5.28260190541756   -1.61717444286033
H         0.52479768853302    4.67846744467841    0.03324381724700
H         1.74968344765543    2.51851432310279    0.41267956440499
H         5.78446051203008    2.62799547048775    1.81998720473195
H        -0.35344388810034    1.95836578435337   -5.01132747186342
H         4.31519963775399   -0.74434540821542    1.86758614891689
H         5.23210802048653    0.28064083826834    0.76662998208524
H         4.85732951005179   -1.34663231757545    0.23849452738327
