36
 energy: -50.498088915195 gnorm: 0.296386294431 xtb: 6.4.1 (79825abcba525fcdf90b791dcacef51065a7a4e7)
C         1.23802510799627   -1.03739344474624   -2.82203512602930
C         2.22541063492560   -0.96569169799965   -1.66645282626263
C         3.22530933167406    0.24737810823650   -1.78804761669404
O         3.91166922647348    0.23897892788956   -3.05135206474442
C         2.46318805074644    1.63092731364965   -1.72202422262008
C         3.33276338436363    2.95045684621841   -1.89044355067575
N         2.37117767166075    4.04898274237933   -1.74705633024308
C         1.60918356877929    3.58083758335884   -0.57983988252417
C         0.12140788672295    3.93125585747285   -0.64495742857805
C         1.80972846369409    2.06641785264447   -0.40026405950216
C         2.67466876121207    1.89290475422112    0.83754574073530
C         3.37652989415090    2.35854995782508    1.83284240031238
C         4.03187739288358    2.95061660951792   -3.24012684082442
C         4.43891846140812    3.30649417751210   -4.42659789613421
C         4.11387041109794    0.14058403085301   -0.50627339890230
C         5.49187387101874    0.70146575375843   -0.29474137245851
O         3.69312388171665   -0.54376439314989    0.44137689603368
H         0.60550961132128   -1.92358382843921   -2.64373279077051
H         1.79616405336738   -1.18540246271543   -3.75197753119550
H         0.52076147824491   -0.22165721720559   -2.86194199364833
H         2.82785006713802   -1.88595004286183   -1.71246880423550
H         1.64096299986204   -0.84563328629795   -0.74565745373303
H         4.44672408601286    1.04924425431524   -3.00112105412226
H         1.71493258364431    1.65530584337228   -2.53123959395923
H         4.01359652765114    3.07905461610883   -1.04981406606516
H         1.85291828993236    4.14935880111517   -2.61785575581410
H         2.02190188988885    4.12492581508571    0.27808665859859
H        -0.36404735969387    3.51134077253276   -1.53202072349537
H         0.05062200830464    5.02350761372493   -0.59076445302753
H        -0.42774122087591    3.56358185662694    0.22957063998815
H         0.84150188588860    1.58438579230003   -0.22840273675620
H         3.99733338563682    2.42225252574098    2.69700919306469
H         4.91483903101815    3.10003079515557   -5.35752983924284
H         5.95496398363633    1.35715483001078   -1.03006059844043
H         6.18353097738211   -0.13861081036645   -0.17526938320134
H         5.40571421594379    1.19319743578175    0.67822668046577
