36
 energy: -50.517518182386 gnorm: 0.305397427144 xtb: 6.4.1 (79825abcba525fcdf90b791dcacef51065a7a4e7)
C         3.51543049403301   -0.18133892601188   -3.78929798499285
C         3.04103785813333   -0.64622526509723   -2.42025667551748
C         3.41800043883689    0.38417876188495   -1.28787518076600
O         4.84171412857931    0.58432977680479   -1.27907177553374
C         2.54938810413289    1.70476811773406   -1.31874138424339
C         2.83197629997890    2.78802203295064   -2.44674376667297
N         2.60303950994963    4.12844336033328   -1.89644864476319
C         1.98520574556481    3.95782491987987   -0.57305908777806
C         0.45739996869934    3.89620156873752   -0.52284148101436
C         2.56255488202840    2.61907980041611   -0.08279148259850
C         3.97764154269692    2.80126324178729    0.44136550071511
C         5.23109265896945    2.96850396201261    0.75907727760340
C         1.93159362443428    2.55452610345604   -3.64890685488943
C         1.12399952391109    2.49957219452593   -4.67106959393017
C         2.91878181905488   -0.48185365909346   -0.08593525006305
C         4.05724852799138   -1.06530850168059    0.70254537459395
O         1.72574308085523   -0.60312415918617    0.23864685501165
H         3.44651411867689   -1.02452447444711   -4.49745731639791
H         4.57264563981281    0.10233636770948   -3.78273326571691
H         2.96239770406984    0.66500319324257   -4.18847842120261
H         3.58802897472906   -1.55203306766467   -2.11654774064466
H         1.95835850316230   -0.81920737312907   -2.37854584130698
H         5.10383496425104    1.37876680784174   -0.78359299346059
H         1.52529214344533    1.36768651121467   -1.54877081348166
H         3.85044349798300    2.73168551448467   -2.82920925092117
H         2.14217239294803    4.69461684090582   -2.60638446351212
H         2.27372030080791    4.82060611396680    0.03912905524435
H         0.04918852182552    3.17941285450036   -1.24287906080050
H         0.06009422858790    4.89266480927455   -0.74682937409970
H         0.06999245036326    3.61356315715324    0.46284568950389
H         1.96274578052580    2.19361508672179    0.72872730717201
H         6.03536025520746    3.28933385359716    1.38073719176077
H         0.38997608012075    2.22019803404488   -5.39143162427206
H         4.71233594560826   -0.25522763103674    1.01830550859029
H         4.62589339908642   -1.80901463507378    0.13515137776801
H         3.66201902545116   -1.63249691109315    1.54988315895999
