36
 energy: -50.520762061285 gnorm: 0.299374268510 xtb: 6.4.1 (79825abcba525fcdf90b791dcacef51065a7a4e7)
C         3.30748831537215   -0.55539088697452   -3.72275199176996
C         3.04199755925016   -0.82944511802585   -2.24971068066865
C         3.42370251370823    0.33951495776949   -1.26281923951665
O         4.79886332839611    0.67082048468286   -1.52024485817823
C         2.41429045859637    1.53803143369021   -1.47268078197602
C         2.70164090863576    2.46702019682707   -2.72969869585665
N         2.93769194670849    3.79581564135330   -2.15476508782537
C         2.29510095788217    3.91497553414597   -0.83754572235431
C         0.85639534060402    4.42637816573471   -0.93295648429363
C         2.44845027396650    2.49397714451263   -0.26905616607579
C         3.72488965265631    2.57438648248962    0.55230757423862
C         4.79518271546059    2.79010399879378    1.26504076396611
C         1.60208815750601    2.49210902463873   -3.77886961609642
C         0.43167715897750    2.60778435691681   -4.34172136266788
C         3.18873848599009   -0.16278165677568    0.19881715421839
C         4.40706630333633   -0.71707551598823    0.88194475048988
O         2.05220176852495   -0.12891007066934    0.69935535606877
H         3.26628990261947   -1.52982435979203   -4.23848745677095
H         4.28875974221393   -0.08851025944166   -3.85446187766609
H         2.50811270262346    0.05341917564982   -4.13728088605725
H         3.65083661150446   -1.68558829064397   -1.92068174773113
H         1.99486367248655   -1.08598647707086   -2.04586188332007
H         5.03095377168873    1.50278436022815   -1.07380686153771
H         1.37216421849874    1.18317715211570   -1.53065828548288
H         3.62634259014766    2.16968063434969   -3.22289748291202
H         2.55413102768661    4.53959384169952   -2.73496745116031
H         2.90074659545249    4.63331854682535   -0.27222897228146
H         0.35558878212564    3.93349235166216   -1.77267853683117
H         0.83964173996235    5.51268398307441   -1.07655453737525
H         0.36290057072446    4.17928970545605    0.01412242344781
H         1.65684774103439    2.22876420580617    0.43973253823583
H         5.58643437245578    2.48955839236958    1.91298548873531
H        -0.36520001166543    2.82380997129030   -5.01557704048483
H         4.25187018042102   -1.79216055372347    0.80996331382716
H         4.38546889854013   -0.33537746927288    1.90772830470852
H         5.30853888896879   -0.49311622554161    0.30481410711416
