36
 energy: -50.517200410108 gnorm: 0.300867636265 xtb: 6.4.1 (79825abcba525fcdf90b791dcacef51065a7a4e7)
C         3.00841176627853   -0.56208564892710   -3.65999028204800
C         2.82516099900977   -0.86299510245273   -2.17968138638350
C         3.31055035042511    0.34826292202743   -1.29459821654739
O         4.68215276361623    0.66439238285495   -1.58762989196756
C         2.41286884330612    1.64200198652366   -1.43532298228635
C         2.90979986338309    2.61460122926895   -2.58979028208701
N         2.97855956757604    3.91249812797585   -1.90956838680650
C         2.12029342880888    3.95226892221193   -0.71625927339232
C         0.64319327585432    4.15346501313909   -1.06006881137540
C         2.38465626827465    2.53382110787242   -0.18329500532407
C         3.67889843282563    2.39478706184607    0.60156698794523
C         4.93650418325336    2.66325104659882    0.81698471262269
C         1.88696835557818    2.50348831175813   -3.70866247583612
C         0.95245718042611    2.76714696930036   -4.57884508167096
C         3.23513294641485   -0.15131252908291    0.18480284179495
C         4.45945755238997   -0.74012393556398    0.82710965122535
O         2.21229585189467   -0.14874634850527    0.88992635518248
H         3.03894180105127   -1.45241987516719   -4.31081579708049
H         3.99555549922259   -0.10202544463596   -3.77003794570245
H         2.22889077188974    0.08865966959724   -4.04775672708827
H         3.53616749557944   -1.64445374569173   -1.87029761657308
H         1.78054099423608   -1.07690753223098   -1.92109350150121
H         4.81392516921663    1.49337947867737   -1.09696382903363
H         1.38751014928523    1.29025567348155   -1.63588254857125
H         3.90204116036429    2.44743357145570   -3.00721242091264
H         2.86580039784484    4.68148254408992   -2.56752591274458
H         2.49396870174095    4.70600080467407   -0.01293758960631
H         0.44093041030801    3.58672237973148   -1.97481975169855
H         0.47695872605157    5.22787382342543   -1.19781204443377
H         0.07014453658954    3.81510980717367   -0.18904691025480
H         1.57998524036803    2.16319987074298    0.46052046115236
H         5.83947123794544    2.92070720834322    1.32156974337712
H         0.16107200597160    2.73555066440826   -5.29191797660268
H         4.17016183976403   -1.23697283615044    1.75151440779183
H         5.11412603063895    0.04758965201069    1.21351388044085
H         4.98519589018694   -1.38634521005583    0.11866937485612
