36
 energy: -50.508879268254 gnorm: 0.309245526360 xtb: 6.4.1 (79825abcba525fcdf90b791dcacef51065a7a4e7)
C         2.95665021977991   -0.20559090249800   -3.90915042550002
C         2.92608487236438   -0.64734331200164   -2.45334743543987
C         3.36801185567279    0.41042342882634   -1.37078051126902
O         4.72499389676664    0.77628132958076   -1.67384212928132
C         2.43794627928782    1.68748825874485   -1.42977038427889
C         2.88949793567076    2.87031039325016   -2.39035217956606
N         2.76077560366343    4.07152822175292   -1.55820293249092
C         1.90026639237760    3.75783877356534   -0.40784996322959
C         0.40587474908143    3.84241059706080   -0.72431632242961
C         2.28202458522328    2.31520882359479   -0.03500635725393
C         3.57097985646025    2.33396959735684    0.77037798487101
C         4.64648697922024    2.67516078266984    1.42377138109593
C         2.15581840864548    2.82341398222764   -3.72073573791908
C         1.75323964076128    2.75509232684218   -4.95900359117920
C         3.30065092756398   -0.27451966812962    0.03285990600471
C         4.59107335498493   -0.62584462909022    0.71813970771722
O         2.17160590298324   -0.56770215513614    0.46029746200452
H         2.92333283591740   -1.13701326711494   -4.49952598731801
H         3.76160401576988    0.49051656317093   -4.16547524134629
H         1.99375547293268    0.21843898784418   -4.18212959718635
H         3.55766008769698   -1.50809220387027   -2.18473942499161
H         1.89905883378398   -0.91600228920916   -2.17604424624923
H         5.06828083272030    0.15185468951134   -2.33534209620784
H         1.45157438787903    1.35586106455206   -1.79364394842533
H         3.93208753429421    2.66458351944681   -2.62996114676145
H         2.29081942173523    4.77973345800304   -2.11904721193762
H         2.19270037983755    4.46183190160205    0.38036472792291
H         0.08783330674313    3.22609423864320   -1.57159464105112
H         0.11236391608770    4.85542457144230   -1.02199986816376
H        -0.17128363434532    3.54685736749339    0.15947366622079
H         1.56633853037750    1.76156027634342    0.58193827642506
H         5.46006611260758    2.78649334498223    2.10342811775915
H         1.50164718447450    2.87061663117151   -5.98813775858102
H         5.12984047538906    0.30715468366585    0.87407967642191
H         5.25508968749681   -1.25613166123281    0.11796280811494
H         4.36073731643998   -1.06915323660039    1.69092599315244
