36
 energy: -50.509419248387 gnorm: 0.317629300184 xtb: 6.4.1 (79825abcba525fcdf90b791dcacef51065a7a4e7)
C         2.07800143426563   -0.84182304592426   -3.47584359182592
C         2.24399174397758   -0.84606561721876   -1.96327260091196
C         3.25744829807992    0.30612230322921   -1.60065727331742
O         4.44340634811596    0.39731658426868   -2.40829933302412
C         2.50197368029488    1.69259929503219   -1.52105831082232
C         3.34608774321953    2.96554257839112   -1.96011564921392
N         2.74610691673595    4.08962161675091   -1.23318000647279
C         1.60968687436441    3.61426654546892   -0.43020044691802
C         0.24853316861798    3.78782009673490   -1.10669840288767
C         2.01097831162249    2.15792299868265   -0.14043933284242
C         3.15104807145505    2.24227567938978    0.86132270075956
C         3.93003663733984    2.62418186552291    1.83465430412075
C         3.19446562963417    3.15253533402569   -3.46093203640768
C         2.78207789709909    3.26301899966270   -4.69291196222926
C         3.79633687530387   -0.09562435857107   -0.18924320066034
C         5.27503473077206    0.02752921651108    0.04848254187916
O         3.02720745109352   -0.64329823515229    0.61815679607551
H         1.07957339181938   -1.24175019460311   -3.72160911758521
H         2.86336340617226   -1.44530246206687   -3.94193135004396
H         2.10588983734272    0.16241641187822   -3.89082626464115
H         2.58885541362608   -1.80520737815921   -1.54728907591332
H         1.27287922891014   -0.55086811417723   -1.54655195046311
H         4.23457129512579    0.59761581581916   -3.33652607755900
H         1.60129932725505    1.59520189208876   -2.14923784796965
H         4.42761548302838    2.87081559893408   -1.87037365727933
H         2.56288930126434    4.90478391588149   -1.81533248197612
H         1.68790891675098    4.21239297741028    0.48551372517234
H         0.22287256279355    3.16871417737868   -2.00943100781986
H         0.05247201955227    4.83991583942220   -1.34252882726673
H        -0.55908229975714    3.51450974320479   -0.41778116565576
H         1.23053873544610    1.59931592216177    0.38703210403698
H         4.69326859636034    2.77089034399987    2.56416977738327
H         2.53751052980801    3.12699760692480   -5.72123426850062
H         5.65855038068373    0.76945253169798   -0.64975849155118
H         5.64982515115156   -0.98313705056147   -0.14250852609123
H         5.49416759488297    0.24094737946507    1.09839865481712
