36
 energy: -50.514952210556 gnorm: 0.313752920432 xtb: 6.4.1 (79825abcba525fcdf90b791dcacef51065a7a4e7)
C         2.76878004286021   -0.66403927915575   -3.62717132140368
C         2.88315072851095   -0.77395777336935   -2.11380453513568
C         3.40466563834229    0.42046554265115   -1.22639470850531
O         4.73657596716148    0.61926277118409   -1.72997499891067
C         2.41757086670276    1.64557275610188   -1.38180563217707
C         2.85822933616081    2.63320919591058   -2.54631362725623
N         2.89456669924584    3.96019464005285   -1.92200975558759
C         2.04766799972085    3.96996165844775   -0.71998799025708
C         0.56781831762196    4.12539203979659   -1.07551019039815
C         2.41705084505021    2.58414606103775   -0.16410647620115
C         3.84462608469636    2.58334131380989    0.35784166021920
C         5.05108883011727    2.54383643834847    0.85072794753768
C         1.79685625703906    2.52106311331170   -3.62858708156418
C         1.07663717424685    2.77256990485520   -4.68597708614868
C         3.33382425779543   -0.09908505277596    0.24633730685842
C         4.53997042867713   -0.72506266225466    0.88789096282972
O         2.22550340263840   -0.10858091846076    0.80752906623130
H         2.51664526571566   -1.65675913911049   -4.03721558983620
H         3.73286624929087   -0.38507359324945   -4.06413191262850
H         2.04055622756420    0.06991739972589   -3.96255607263953
H         3.61821448075302   -1.54842449862056   -1.84583300849118
H         1.93615832358375   -1.02240020149445   -1.61848753739596
H         4.98962973312150    1.43673904163745   -1.26841991474440
H         1.42919539647914    1.16683379912925   -1.47789414632432
H         3.86701676019727    2.40351403668108   -2.88736660874895
H         2.60887945626367    4.70846305790689   -2.55084753010530
H         2.50225294346985    4.71606458253282   -0.05734984834822
H         0.14138117640942    3.16530803119922   -1.38416342615255
H         0.34113618261915    4.95306000931994   -1.75708362846455
H         0.00118275960307    4.36264748005127   -0.16766535070432
H         1.74983014898345    2.22241662483619    0.62540113136681
H         6.01240842613897    2.46700977380420    1.30482210798658
H         0.33421085103616    2.96734516424019   -5.42531972471763
H         4.59761656351235   -0.45394699167880    1.94062464651668
H         5.40791977238516   -0.45884705603688    0.27618439258070
H         4.34648632442148   -1.79945021433982    0.82350419095037
