36
 energy: -50.518758676021 gnorm: 0.304696295068 xtb: 6.4.1 (79825abcba525fcdf90b791dcacef51065a7a4e7)
C         3.01627582107340   -0.52643204724092   -3.71146036705990
C         2.84932795352677   -0.81188538011413   -2.22617030347234
C         3.39010289981802    0.34784938726512   -1.30492181449737
O         4.75922567165541    0.65759482420469   -1.61582240342533
C         2.48124807383533    1.63994799182071   -1.36705404400081
C         2.87549502788470    2.61347052231327   -2.55974331206907
N         2.86789463296418    3.93843358010364   -1.93015517186896
C         2.05092839506851    3.91261176432812   -0.70782603510794
C         0.54591178876753    4.01852187309240   -0.96123831712752
C         2.47562061652288    2.55208299953927   -0.12943965832122
C         3.74781114081959    2.68344523798634    0.69194744143226
C         4.97671669726494    2.60013738889903    1.11961650036598
C         1.83254949566296    2.59772597989531   -3.66537530002455
C         0.98826918419041    2.80446202578550   -4.63722701875087
C         3.25630013855089   -0.23948706690150    0.13765353651159
C         4.49929713809370   -0.81982567058692    0.75116247733888
O         2.14290992083746   -0.17478184474806    0.68498976245931
H         2.92113068188629   -1.40982245939724   -4.36550145909869
H         4.01641863306762   -0.13006610792639   -3.91351735497597
H         2.34358142910712    0.25630702998499   -4.05246924999057
H         3.30367687062083   -1.75242430493804   -1.87849265022408
H         1.79344612850956   -0.84825406197250   -1.93011612505759
H         4.85813245723604    1.58952000606143   -1.35684430080761
H         1.44842056431296    1.29101721912539   -1.53083655420579
H         3.82772130527675    2.36670820552033   -3.02782721399058
H         2.61186313316609    4.66242870374390   -2.59891424846652
H         2.29367551990702    4.79551997492825   -0.10454063811142
H         0.22911441443853    3.33627329449351   -1.75688463349152
H         0.39128026471321    5.03661472071231   -1.33612158043822
H         0.04379423644830    3.86684230120627    0.00126857856465
H         1.75429729501131    2.17068565909280    0.60102775283127
H         5.72908908190951    2.89408624842960    1.81515160225624
H         0.42262938660199    2.88393305478811   -5.53694794873375
H         4.32502694810674   -1.43234463645857    1.63406983860289
H         5.26535526943964   -0.10302441347043    1.06380066177965
H         4.99440312037743   -1.47710456386741    0.03092301241846
