36
 energy: -50.506498848714 gnorm: 0.309681225725 xtb: 6.4.1 (79825abcba525fcdf90b791dcacef51065a7a4e7)
C         1.48650791947086   -0.54266362884666   -3.19965348023427
C         2.33772377395649   -0.88604997864038   -1.98599819115337
C         3.29671207897464    0.29302880693479   -1.56619381534434
O         4.34052075403906    0.36914068256703   -2.55197727662464
C         2.53863087343152    1.67783814347817   -1.48245415874720
C         3.46331474161859    2.86776240848346   -1.98715653834651
N         2.87974799774109    4.01971353278902   -1.29115037857994
C         1.69028852385586    3.58749008795057   -0.54244604072415
C         0.36452922148310    3.70515046825476   -1.29678551572802
C         2.01077589236944    2.14478023521793   -0.11605540217688
C         3.03911326783320    2.21728539178106    1.00093467875314
C         3.58972778844978    2.57900645003253    2.12611530844090
C         3.31825552421055    2.98871784468793   -3.49537834015880
C         2.97400332101467    3.05589929921396   -4.75117366430953
C         3.92072649977598   -0.10096394509841   -0.18805497573225
C         5.37078346873772    0.26069657364438   -0.03068875225149
O         3.21780574949968   -0.72301299160465    0.62579937043730
H         1.35184781424094   -1.45217467639626   -3.80945449938540
H         2.00453258551775    0.18362704642793   -3.83398062797060
H         0.48985181246981   -0.24626204074989   -2.88293914315148
H         3.01980175398657   -1.71005629925947   -2.24620844867270
H         1.74415898676108   -1.28528480807206   -1.15404292081443
H         4.19725451098523    1.06469316406586   -3.21606934837460
H         1.65160107058606    1.67254874234734   -2.13702289243528
H         4.52919624161288    2.84171120179292   -1.76366819568122
H         2.74152449269526    4.77410701391944   -1.96103433459682
H         1.63830467632243    4.26288968254756    0.31984128395401
H         0.27600874764580    3.00095760955474   -2.13054405716349
H         0.15230801802102    4.66173509850820   -1.78757001049886
H        -0.41765287385310    3.50904031908801   -0.55430303361385
H         1.22890632427606    1.45428113975772    0.21747854838026
H         4.07261458574937    2.70504842373980    3.06801391624757
H         2.96955379603134    3.27664523007340   -5.79377292866845
H         5.48484684748482    1.33805004179067    0.07596043084415
H         5.83847844391321   -0.13242666732282   -0.93904291075352
H         5.68691618028487   -0.28756900401011    0.86113821302615
