36
 energy: -50.517576069893 gnorm: 0.301851161001 xtb: 6.4.1 (79825abcba525fcdf90b791dcacef51065a7a4e7)
C         2.91957214599980   -0.45525709997195   -3.73004639042899
C         2.89045925236918   -0.83432642643974   -2.25664873464386
C         3.32544755135840    0.31014513578092   -1.26312416219021
O         4.66376868932796    0.74701775150836   -1.55490736982773
C         2.41519826340718    1.59322925277599   -1.41976938867575
C         2.87094588136510    2.53683243525075   -2.61458804474738
N         3.03000199599742    3.83704851144894   -1.95420528088500
C         2.24191021988527    3.89402755034779   -0.71410291834767
C         0.76814268527716    4.15942103125942   -1.02728863212693
C         2.47108998747512    2.47652947125251   -0.16264242216057
C         3.86819325200526    2.50802909082339    0.43528052656326
C         4.93982702933846    2.98889520730250    1.00133596735558
C         1.87144111373856    2.50529968897017   -3.75931562332868
C         0.81282699955008    2.63674388274379   -4.50905115341516
C         3.21152654107729   -0.24305782472527    0.19457245068855
C         4.43816128994020   -0.73118744150796    0.91243339101686
O         2.09319346257093   -0.37530309135418    0.71920927981115
H         2.69475737187858   -1.29967080677344   -4.40356311451751
H         3.89210275761955   -0.01929892094806   -3.97973279962596
H         2.08200377336866    0.21610084085717   -3.90105225330568
H         3.54183824978183   -1.71248164976722   -2.12829389379061
H         1.87434320850631   -1.12954969230379   -1.96646157443325
H         4.90591848170889    1.47014025951933   -0.95175393236324
H         1.36994373525379    1.27816987438518   -1.57303591205095
H         3.88909971895976    2.31156743876736   -2.92978244277389
H         2.84265291541428    4.66442309208129   -2.51750927949626
H         2.54199913099676    4.73835587984744   -0.08207232260626
H         0.30543436805741    3.32280710921160   -1.56100664867015
H         0.75359988741337    5.02785862163188   -1.69554462837917
H         0.19616011054217    4.37022024660200   -0.11627387921898
H         1.69652503415329    2.10716722280940    0.51777993591556
H         5.79949921351847    3.26523166907730    1.56776436180019
H        -0.05013917767290    2.84246579749439   -5.09958449558453
H         5.23643707377303   -0.99097504724604    0.21936689543249
H         4.09291892438720   -1.61571098666215    1.45724304104635
H         4.74416511824261    0.03144574422784    1.63398910306377
