36
 energy: -50.515354830021 gnorm: 0.292928030493 xtb: 6.4.1 (79825abcba525fcdf90b791dcacef51065a7a4e7)
C         3.40220494576306   -0.39463618805129   -3.75971476791101
C         3.09417215977829   -0.76666991560989   -2.31674959238252
C         3.53418919853870    0.40188368053817   -1.35394712548626
O         4.91569398407165    0.77609495984446   -1.48999508943872
C         2.54342284374383    1.62850684739250   -1.46872522124904
C         2.76976650770200    2.63471091757650   -2.67785980069791
N         2.76211205191961    3.97609076661334   -2.08405205601452
C         2.12393358943384    3.88642607734064   -0.76235707446029
C         0.60578752134009    4.03908869472421   -0.87387553905258
C         2.54039612208562    2.51231401625623   -0.21071605564797
C         3.71844565501274    2.60341051861932    0.74547548031231
C         4.82790503303486    2.49010322034233    1.42098359813230
C         1.62479732038093    2.56658875599717   -3.67526160830714
C         0.64369941510448    2.98559125453321   -4.42488062398553
C         3.18735702809014   -0.21915962113034    0.03813895463522
C         4.28058727971611   -0.94223395756722    0.77314835586018
O         2.03166486081767   -0.26636872234141    0.49151344650764
H         3.04529259316055   -1.18309078622476   -4.44393249187156
H         4.46713147176224   -0.15395575272125   -3.83860111163889
H         2.83186071621735    0.49650505939124   -4.00883323173212
H         3.69915965888406   -1.65182569999207   -2.06691858047303
H         2.04866645340779   -1.04239427903557   -2.13033317870482
H         5.14472784683249    1.51948870601923   -0.90668901165306
H         1.54353467864712    1.19796115880668   -1.64240350407278
H         3.72025505393846    2.41403594398482   -3.16221831630328
H         2.24310363658604    4.58991717254439   -2.70919779065225
H         2.63000787841929    4.69231513065885   -0.21752865961193
H         0.16564142557305    3.27856104778733   -1.52713343059300
H         0.38911838470216    4.99718192064438   -1.35974925832428
H         0.14779857597059    4.05295678218898    0.12191663591173
H         1.74835227088986    2.16481691717256    0.46104746182850
H         5.65712499627953    2.72234897764085    2.04923145132765
H        -0.19170208039776    2.73132042852387   -5.03579183005969
H         4.97517292771313   -1.42937748891123    0.09100690392890
H         3.90478151353155   -1.63056964253717    1.53692565332715
H         4.86036739779509   -0.16885295159123    1.28464342894208
