36
 energy: -50.516894275703 gnorm: 0.304311030299 xtb: 6.4.1 (79825abcba525fcdf90b791dcacef51065a7a4e7)
C         2.77416266126184   -0.64551985213448   -3.50937968992912
C         2.92602376575520   -0.85763913414322   -2.01025148155144
C         3.37780464259647    0.41271760086733   -1.19281104622015
O         4.71874260390974    0.71011470531269   -1.61770976827402
C         2.37690904376031    1.60036493068349   -1.48793499236404
C         2.90680746995610    2.59907009951400   -2.60484149157716
N         2.93681754627210    3.90547831452965   -1.93823586803580
C         2.05820504582813    3.93989701224310   -0.75965852970524
C         0.57869302406931    4.21657182867108   -1.03352882805212
C         2.32514149207681    2.51281083959546   -0.25162033295817
C         3.68305744201511    2.50976799910512    0.43135593763105
C         4.92884378825112    2.58509868995167    0.80870400762661
C         1.91398559929654    2.56314836159123   -3.75524130307471
C         1.01490430592496    2.84515283012204   -4.65644666181202
C         3.36322781768462   -0.08189471520996    0.29010401754978
C         4.61668371076879   -0.81754218744382    0.67207099732264
O         2.33768728024739   -0.07309302440399    0.99123924800022
H         2.92307710613958   -1.61996666389493   -4.00483793280390
H         3.48590173305104    0.02960259238120   -3.99502956794391
H         1.77603003602517   -0.28706819149428   -3.74755806026813
H         3.62681371142642   -1.69094122391469   -1.84768691695838
H         1.96950147479263   -1.08724643614062   -1.52424450708891
H         4.93118966826111    1.52554560097655   -1.13265775602213
H         1.41883777896365    1.20246116864108   -1.86087212069116
H         3.88732582279781    2.35723426631003   -3.01328763525060
H         2.85464725890228    4.74898206375271   -2.50277925317009
H         2.40320449806341    4.67485392925200   -0.02262389159004
H         0.26952546063579    3.64366137303639   -1.91390703502085
H         0.41278513307240    5.28617595649046   -1.20494351081594
H        -0.08890979665957    3.94236780100357   -0.20850345050938
H         1.53457597775178    2.15117860030330    0.41439933395801
H         5.76032383585852    2.69206269914428    1.46706473529100
H         0.26451065491860    3.04161637077544   -5.38724979424325
H         4.95228110549795   -0.44791407100518    1.63945119075476
H         5.48752710822766   -0.86019491592089    0.01010101781876
H         4.27000147415867   -1.83509132358927    0.87280851173312
