36
 energy: -50.519201226374 gnorm: 0.303500270083 xtb: 6.4.1 (79825abcba525fcdf90b791dcacef51065a7a4e7)
C         3.34291238152697   -0.69088139975588   -3.69415290707796
C         2.99282645047489   -0.84765883542314   -2.22163721859099
C         3.35508454608848    0.38673780856934   -1.30996015256771
O         4.68381321710541    0.88687439397999   -1.53676871189381
C         2.36714665439126    1.61624737720875   -1.41804020443582
C         2.63666549756121    2.57644517703996   -2.65540202762856
N         3.09963967599700    3.83886693571556   -2.06896163902959
C         2.30721811834641    4.00752744110632   -0.84184679166266
C         0.86268928469832    4.48897583019783   -0.99035145399527
C         2.37369105845070    2.59633913780805   -0.23351976908731
C         3.61665789595840    2.61505605688371    0.64117142771047
C         4.76772289360945    2.58840916750655    1.25304496401877
C         1.48605965790454    2.76746324751231   -3.63009362149727
C         0.49396327776002    2.40172798798968   -4.39300078032935
C         3.28679628874548   -0.24212190173172    0.11964229159753
C         4.50988597867925   -0.88310400349483    0.71245021805077
O         2.18040399607249   -0.29616790356285    0.68211596351457
H         3.11586529701779   -1.65306117110645   -4.18390864406172
H         4.40620400586790   -0.47999250762863   -3.84632197806786
H         2.72005340344984    0.06175836823523   -4.17066664390449
H         3.55834255780707   -1.72954203670857   -1.88340694637408
H         1.92581273329873   -1.03932216720907   -2.05250980985141
H         4.82840727107198    1.71415741682793   -1.04683798789183
H         1.34274354406946    1.25974405170061   -1.61505217737495
H         3.46131935667788    2.19995382037456   -3.25949586184493
H         2.88643725511498    4.61984655560896   -2.68667948842797
H         2.84222695170928    4.68024937601531   -0.16095244471539
H         0.24547654013480    3.65003663225351   -1.32814756788560
H         0.78927584057230    5.28180786519513   -1.74333833738865
H         0.45968568777978    4.85615378936031   -0.03939577549214
H         1.55149069910635    2.44516830087524    0.47393190304245
H         5.49593484995617    2.54170023401030    2.03006802653591
H        -0.35357045830521    2.46858710888506   -5.03563459709006
H         4.26648526471818   -1.83897334589608    1.17304211164910
H         4.75184447828532   -0.20292088082089    1.53537108652626
H         5.38037073269321   -0.94700059506514    0.05361496911896
