36
 energy: -50.517685791464 gnorm: 0.303030013728 xtb: 6.4.1 (79825abcba525fcdf90b791dcacef51065a7a4e7)
C         2.84087568200470   -0.56670398623602   -3.61227779600506
C         3.02939755723661   -0.89796230428441   -2.13912837976411
C         3.43783989730595    0.36169441158445   -1.28323068243691
O         4.79697791906883    0.71319057171697   -1.59354158696826
C         2.46956963105667    1.58986876407712   -1.51439464639265
C         2.94547215521568    2.58147920328894   -2.66152586021478
N         2.90861904829328    3.91313282737652   -2.04727300519854
C         2.15167414537967    3.93261978650070   -0.78677953622391
C         0.68832431552304    4.33550991237290   -0.97860374224979
C         2.46976641449605    2.51366964399470   -0.28545069401755
C         3.81839673022107    2.60013182445113    0.41033815638205
C         4.70273163247966    2.86118130190948    1.33221388328119
C         1.90445795035299    2.49886491166172   -3.76600297474337
C         0.80429695902938    2.72514522831343   -4.42818711752638
C         3.23198868924213   -0.20988136561321    0.15719194217997
C         4.44284100517007   -0.83638245528757    0.78930009043809
O         2.10861011522394   -0.19157118468907    0.68736813777068
H         2.61371787779353   -1.43365536511731   -4.25570270061429
H         3.80635769001705   -0.32147789781596   -4.06606991459222
H         2.13837228211884    0.25925384034509   -3.68822455582414
H         3.79377617723973   -1.67803139671775   -2.00076763699038
H         2.05916989645364   -1.28060958760501   -1.79839898498066
H         5.04858180708326    1.47079466460608   -1.03850260420124
H         1.45378323149808    1.21449020532870   -1.72074140073538
H         3.90601605940007    2.21946944058038   -3.02626331956289
H         2.73773283150926    4.68453706186927   -2.68968500251638
H         2.62543248473706    4.66010892241652   -0.11691466765502
H         0.20017817717765    3.54699239340665   -1.56069499602565
H         0.52705284527131    5.25935321464172   -1.54558387629052
H         0.21506721976587    4.39412033252915    0.00838196622920
H         1.73022787363747    2.14288402396547    0.43215273244414
H         5.60804301542071    2.76143320454677    1.88601965402009
H        -0.10350707495801    2.65713823824372   -4.98228879854713
H         5.07262189435791   -1.18378107445615   -0.02786894199718
H         4.12705849825547   -1.66022612334478    1.43733925653434
H         5.00175524473298   -0.13266564074588    1.41242758897697
