36
 energy: -50.503417162518 gnorm: 0.309074846566 xtb: 6.4.1 (79825abcba525fcdf90b791dcacef51065a7a4e7)
C         1.25654180430410   -0.86587755195359   -2.89144648511946
C         2.33726965170937   -0.96158683155807   -1.82453091778071
C         3.27571746220067    0.28648907437494   -1.60602848806774
O         4.24123036613783    0.27290562669786   -2.67125096834581
C         2.44317441315056    1.62812772007016   -1.52681885382643
C         3.40729830496364    2.79851326883662   -2.00257855999478
N         2.89344102887887    3.93695640235769   -1.23325155849382
C         1.65541315903677    3.61916218647502   -0.50628322196803
C         0.43441653060206    3.93470607877784   -1.37237156754703
C         1.84329013617991    2.12341314409301   -0.20071834201423
C         2.81208614738326    2.02318369890063    0.96623922390964
C         3.26146863166166    1.97141682065751    2.18911514390068
C         3.37177050017565    2.99598672289628   -3.50927938789582
C         3.56992003245083    3.35652835447769   -4.74653090240217
C         4.10336557862124    0.04828696336755   -0.30136404330759
C         5.35154093305990    0.87653875636729   -0.18184444852852
O         3.74391822573810   -0.81643087801963    0.51500729234327
H         0.84171507467930   -1.88589430273595   -2.95989782215411
H         1.63294383918812   -0.53357785491581   -3.86413196796174
H         0.44802490274520   -0.19446343709498   -2.61397797649263
H         3.00383041556650   -1.79988102952846   -2.07925773249954
H         1.87412056135201   -1.15577535855134   -0.84901007124769
H         3.62622157694714    0.13832559231647   -3.41218899926425
H         1.55711290577912    1.61743635716801   -2.18263191881365
H         4.45809407388150    2.64464839428309   -1.75992050009079
H         2.80933675113221    4.80644021347062   -1.75659097725242
H         1.66185459277175    4.23482800872736    0.40108685955998
H         0.28894908253129    3.35517182430373   -2.28989869542452
H         0.65324748490914    4.95104757650974   -1.71896122803174
H        -0.46896130628476    3.99398796293171   -0.75435668305069
H         0.92047259440609    1.61504117475337    0.09814558654852
H         3.97878206032930    2.16272673256733    2.95403422534324
H         3.57086180194116    3.51634886295265   -5.80019987225003
H         5.17920522491927    1.94843000177242   -0.26199779964994
H         6.05768371351863    0.57618733356719   -0.96257688978948
H         5.64558974352927    0.72820974738886    0.86095187615066
