36
 energy: -50.517921425914 gnorm: 0.304386577521 xtb: 6.4.1 (79825abcba525fcdf90b791dcacef51065a7a4e7)
C         3.81522700581244   -0.44459939345407   -3.74633602220932
C         3.07223350687995   -0.63278038607648   -2.43180555396941
C         3.43056875456128    0.42145423684288   -1.31542466623111
O         4.84451116993958    0.65832094752590   -1.42386633202068
C         2.46527315184613    1.66927828772373   -1.41806912449228
C         2.77365101153635    2.73782229023438   -2.55332297951227
N         2.79347601340851    4.06196134963297   -1.92226924233425
C         2.05753791941026    3.96231152507926   -0.65315373993828
C         0.53413566214301    4.10092293077628   -0.67643824953963
C         2.46043755448176    2.56034700672160   -0.16519861093498
C         3.82339720517067    2.57119458299396    0.50757543675554
C         4.98046438685570    2.98615056865130    0.94238228829731
C         1.63494981096364    2.49633773646579   -3.53079429453439
C         0.58250978707353    2.39089786967366   -4.29322281741420
C         3.08857651764351   -0.26125636575034    0.04870088223378
C         4.19839433422955   -1.08222373127644    0.64245561207171
O         1.89458076216463   -0.23893299181639    0.39115862756986
H         3.26022253650918   -0.93966815131972   -4.56124579364189
H         4.83657569607421   -0.83821123254512   -3.73470839476169
H         3.80890793914464    0.61444762337859   -3.99100877402401
H         3.26406606503414   -1.62539166274768   -1.99608857162729
H         1.99985446678083   -0.55585862462553   -2.65076541666689
H         5.10253715905215    1.37707675899034   -0.82207781083095
H         1.42854729015665    1.34177097544401   -1.60041088676300
H         3.73191872283030    2.59502768769703   -3.05138097566949
H         2.41292337625134    4.80944728162746   -2.49968091893416
H         2.44383636760489    4.76752625841919   -0.01690764160372
H         0.11234865319551    3.22484805196961   -1.17989161116892
H         0.23803560155355    4.94502501303523   -1.30950842206289
H         0.10858113735205    4.21577159818372    0.32718587445617
H         1.77862792084136    2.20841624740914    0.61623231121737
H         5.84516002854104    2.83587494674316    1.54732684587394
H        -0.11552032158518    2.39412337802720   -5.09852111321334
H         3.94899726183575   -2.13944364318459    0.71430375350512
H         4.41617308023308   -0.76786032520822    1.66819427917560
H         5.06968115733270   -0.95486338357595   -0.00602644997873
