36
 energy: -50.515786805268 gnorm: 0.308003175979 xtb: 6.4.1 (79825abcba525fcdf90b791dcacef51065a7a4e7)
C         3.30307765585553   -0.15236106927016   -3.88611696796009
C         3.13184273164492   -0.68179615462421   -2.46984762097803
C         3.43018534890546    0.39343156491643   -1.35584668546751
O         4.83622933398818    0.66139624479061   -1.49124910893125
C         2.48901411845860    1.66348783098458   -1.37930075991538
C         2.88112496913055    2.75737875313685   -2.46342999839515
N         2.83333631001402    4.05441655303042   -1.77978149720899
C         1.97522994514085    3.93079699662201   -0.59211117637789
C         0.46094637242823    3.98987729143069   -0.80178830152239
C         2.47655614387726    2.55345657853887   -0.12570124180646
C         3.82232998066093    2.62819183271889    0.57694303904588
C         4.65087527969425    2.84588198590950    1.55988433627306
C         1.90604996918213    2.60308819303638   -3.61921048106178
C         1.08191281104262    2.63726589342767   -4.62899988048161
C         3.15765270294688   -0.37710102307837   -0.02321904471119
C         4.31287225203139   -1.11195756115201    0.59620111275991
O         1.97858649305425   -0.46742133795618    0.35763080463266
H         3.01217646702314   -0.88771733761140   -4.65542095646255
H         4.34777773490518    0.16289967812376   -3.97232042797754
H         2.63517550762039    0.70286786356228   -3.94916823998195
H         3.83663210683762   -1.49414641504153   -2.23471966898706
H         2.08765536477519   -0.99321421498591   -2.34120581294318
H         5.06829849598392    1.26412921025140   -0.76447979925732
H         1.46659876231215    1.29820049701931   -1.57046052860380
H         3.84781901387307    2.58342117296244   -2.93456739930600
H         2.42858982683645    4.74848313208889   -2.40541049302185
H         2.26685854428879    4.61991442386737    0.20943500768915
H         0.15347731407308    3.04427583417334   -1.26023941376120
H         0.23698843598762    4.79357283750955   -1.51233578355122
H        -0.09637368191328    4.19259240045609    0.12008435328529
H         1.83497623490156    2.17078147414439    0.67510391208070
H         5.57313993519835    2.98236722547167    2.07664240619474
H         0.37434455970483    2.38295107143640   -5.38426997384393
H         3.93256100754009   -1.98371993849288    1.12579408148949
H         4.85926465816901   -0.42180625719166    1.24699928609434
H         4.89567503719307   -1.34165458054069   -0.30016408422061
