36
 energy: -50.501861348021 gnorm: 0.314504495879 xtb: 6.4.1 (79825abcba525fcdf90b791dcacef51065a7a4e7)
C         2.13778304767650   -0.89502423987102   -3.50321309715332
C         2.25488231579572   -0.72901179752946   -1.99517814769703
C         3.27145402721225    0.38728351566620   -1.54065884023371
O         4.35413714576739    0.46139932041982   -2.48374033603038
C         2.47757484444906    1.75428749671494   -1.51939156371461
C         3.24185634989257    3.05265191592526   -2.02516632212873
N         2.78914187254964    4.15559176318532   -1.17045035900598
C         1.61879526409220    3.70347128003777   -0.40359639131350
C         0.23613395070834    3.83099456281538   -1.04585431285619
C         1.94556107360996    2.22119110538096   -0.15459350681765
C         3.00226341395098    2.13061295697998    0.93424871246453
C         3.88486496649549    2.43814829100420    1.84336171922326
C         3.00120228974102    3.11166931379915   -3.52483559563270
C         2.91858319596448    3.09896175813413   -4.82601099079390
C         3.85939776550490   -0.03090530206892   -0.15381666973832
C         5.35468941710273   -0.02858564000745   -0.00440059812651
O         3.12832400106298   -0.50448980797753    0.73198825019125
H         1.20583427216639   -1.47977167362556   -3.58532821984730
H         2.99139383117330   -1.37837196656865   -3.98895195073830
H         1.88792518537413    0.00704942640989   -4.05577025910767
H         2.68881447858245   -1.66958508978682   -1.62241692557272
H         1.26299320454391   -0.49616522819573   -1.58799802903354
H         4.18202661034771   -0.28536196867714   -3.08212340542443
H         1.63117925251808    1.60868285569300   -2.21056727958576
H         4.32727328992544    2.96009805037793   -2.03090427484228
H         2.67485396955492    5.09550109943847   -1.54524160525696
H         1.62534751923551    4.22628424845448    0.56026564693074
H         0.14450393704139    3.15957995211771   -1.90590263927442
H         0.00838635810248    4.84742454751751   -1.38638703511995
H        -0.50388408300087    3.62474210290914   -0.26394543813642
H         1.15357794283695    1.55487542491838    0.20337305478991
H         4.63598634397996    2.35873156753006    2.59552453117534
H         2.86669807274781    3.31313758835168   -5.86869906605392
H         5.74391407678861    0.66487990245766   -0.74782827042775
H         5.74268427337279   -1.04989409728516   -0.07354371894669
H         5.59994801079454    0.25700993188710    1.02232904475843
