36
 energy: -50.518942775883 gnorm: 0.304508678441 xtb: 6.4.1 (79825abcba525fcdf90b791dcacef51065a7a4e7)
C         3.04178794606633   -0.49809144830494   -3.61105270620763
C         2.97133027216263   -0.86483021794850   -2.13593231683666
C         3.36314753907661    0.33928792337170   -1.19641127305348
O         4.73851513510349    0.63368094165795   -1.49439668845793
C         2.46738248907861    1.63019142537810   -1.37125247314862
C         2.76314952419471    2.57572331055493   -2.61390117282640
N         3.03266183452105    3.87843003402861   -1.99560966568990
C         2.21452167526222    4.01680828496936   -0.78165444979210
C         0.76826420852085    4.39056376366349   -1.11204197171199
C         2.43235154390493    2.61375368872342   -0.19011341611989
C         3.87291171414746    2.66988027217430    0.29158963075538
C         5.03659354048447    2.54738548429562    0.86681965229617
C         1.57888794290336    2.50861226675296   -3.56438838990637
C         0.67432575138975    2.64932305456864   -4.49283467578377
C         3.15622721343583   -0.27351980613749    0.22680395726716
C         4.38798549711717   -0.66800765164730    0.99190429304350
O         1.99667703430883   -0.45181609038605    0.63552794766074
H         3.00899692168797   -1.43899517968310   -4.18622736529617
H         3.99429697684726   -0.01693725209692   -3.85484732001109
H         2.23499197220971    0.09050190489202   -4.04014871709898
H         3.70548898763158   -1.64525998908585   -1.88321405435377
H         1.96882479862282   -1.26454472058313   -1.93827537302735
H         4.90724447179778    1.50924978113762   -1.10678041862598
H         1.49365282161933    1.13981874263358   -1.53463925916360
H         3.68106552656678    2.24282066762492   -3.09694889925353
H         2.90552332350954    4.61865875422901   -2.68325565823929
H         2.61795653397584    4.76742425559468   -0.09156580468173
H         0.44011677130963    3.61072208563983   -1.80705490760739
H         0.69490948551994    5.36337121411303   -1.61126753542304
H         0.15327376184902    4.42793158030827   -0.20543364864346
H         1.68352767478210    2.24305691565303    0.51784183272961
H         6.08112692872207    2.58917594170548    1.07524900168540
H        -0.19210096027774    2.61354279952811   -5.11233955098308
H         4.45932266312762   -0.02565043328784    1.86789699124938
H         5.31540049879217   -0.50338307285652    0.43405852575206
H         4.28187740332035   -1.70482324390022    1.32303095342682
