36
 energy: -50.516813183707 gnorm: 0.301956494384 xtb: 6.4.1 (79825abcba525fcdf90b791dcacef51065a7a4e7)
C         3.16692879038336   -0.45694984127517   -3.75857881007669
C         3.05312004760727   -0.82377884227013   -2.28619101107592
C         3.39631200857585    0.34306983745517   -1.28279452268678
O         4.71561083894655    0.82812147593834   -1.58491055527060
C         2.40410106143812    1.57142283230314   -1.36065780366691
C         2.83096391164116    2.60580609872612   -2.48916294500695
N         2.87041418634497    3.89946758032198   -1.79861985385501
C         1.98431274599204    3.84009360931059   -0.62666076452477
C         0.54727894443945    4.12132905022225   -1.06977498428521
C         2.29109556645029    2.43119073521427   -0.09111447239153
C         3.60869695031419    2.46400520741605    0.66601920580521
C         4.75776148341166    2.82039492950567    1.16869901990946
C         1.88363589770452    2.78670132189264   -3.66400418149304
C         1.07521440617791    3.24000018988539   -4.58107541113614
C         3.33196603019007   -0.48735574764688    0.04013551432519
C         4.57953071180438   -0.74855437781404    0.83611623216744
O         2.17657044319417   -0.80918598236034    0.36399942651749
H         2.91533020956921   -1.32231208215846   -4.39501208819901
H         4.20539089004825   -0.22826171575111   -4.01841883572254
H         2.55512767124710    0.35474546195797   -4.14372214861077
H         3.74802925500721   -1.64972987570963   -2.06978340797518
H         2.02604295937687   -1.14122146721297   -2.06664598134474
H         4.90100404506394    1.57728762123884   -0.99354248036139
H         1.37108778237278    1.25331524014709   -1.57745538577792
H         3.81261319967438    2.36230611739673   -2.89388693839382
H         2.48779304056607    4.62890642991401   -2.39735168418244
H         2.33333475548960    4.59459177238657    0.08840742723256
H         0.11792761591697    3.47502634680835   -1.84232078357351
H         0.55564869436875    5.14798775026167   -1.45300243299583
H        -0.18494734627934    4.09840120379344   -0.25438107542485
H         1.51296092025191    2.06023607642302    0.58435057730518
H         5.66143569523038    2.74838418795545    1.72943657315056
H         0.24778799715558    3.40029795278981   -5.23332685746841
H         4.58498428487064    0.10883252002333    1.50688666054123
H         5.49878931504465   -0.82205099953812    0.24624030723514
H         4.47871742726370   -1.66310789080647    1.42714831121465
