36
 energy: -50.517001516477 gnorm: 0.303808139563 xtb: 6.4.1 (79825abcba525fcdf90b791dcacef51065a7a4e7)
C         3.86121987835382   -0.27372244248269   -3.81789230544094
C         3.11800212080601   -0.54995711453593   -2.51913769189178
C         3.35074355136626    0.45451561290450   -1.32624748662569
O         4.75334597752424    0.76694048554153   -1.37310616055232
C         2.35482870839157    1.68203961915851   -1.29914050314793
C         2.65639478386564    2.76705157709293   -2.42051975767223
N         2.59418283966759    4.06836693436389   -1.74622449073766
C         1.91598278392081    3.88469532250439   -0.45452075042706
C         0.39985546610782    3.95096267752764   -0.64810878332074
C         2.40010324733700    2.49823739446818    0.00296654266447
C         3.77202336933441    2.60590576693518    0.64844641390315
C         4.97249458504759    2.74758433860901    1.13716508542253
C         1.75005900633207    2.66126376183234   -3.63615529303078
C         1.16373574371220    2.66959025622294   -4.80071550968273
C         3.09257830519397   -0.39226670430077   -0.03775946540965
C         4.27398521330197   -1.14211771154156    0.51017197927829
O         1.97344393252588   -0.46854988986241    0.49620741972634
H         3.86810712140736   -1.14955978517031   -4.48875927185496
H         4.91138322834363   -0.09206479402918   -3.56814029304324
H         3.45060218907029    0.56403899873302   -4.37559666135640
H         3.31363842266078   -1.57503290086167   -2.16860633221860
H         2.07070916624720   -0.59710354871943   -2.84288429473754
H         4.86157072737347    1.66959979080333   -1.02838839578045
H         1.34713164701551    1.24813491496853   -1.40676675213308
H         3.67286352957188    2.61328007572305   -2.78090106903125
H         2.13211563790234    4.76251540204439   -2.33069996514037
H         2.25338068961854    4.67578908843394    0.22572895669274
H         0.21917294321239    3.49235190416891   -1.62581362094172
H         0.10714411387119    4.99400254703114   -0.81348505361440
H        -0.21927837216189    3.45657512350536    0.10938873434320
H         1.66006379735653    2.07176433633041    0.68839798311831
H         6.00543982468804    2.98355714963119    1.25369911445907
H         0.55797117686021    2.64006853342365   -5.67703710193395
H         5.18721268600019   -0.55037633566633    0.54071252946466
H         4.56901986995208   -2.03515392123052   -0.05003568251138
H         3.97589970159592   -1.46679819950552    1.51098064291977
