36
 energy: -50.521114172652 gnorm: 0.306540722491 xtb: 6.4.1 (79825abcba525fcdf90b791dcacef51065a7a4e7)
C         3.04085548855813   -0.40484032506610   -3.71474693586884
C         2.94160624610703   -0.84337301823262   -2.26103429692717
C         3.36383473878394    0.31833591355573   -1.28211831318101
O         4.75848486772785    0.58700335554296   -1.50542842148558
C         2.50347691497295    1.63752168053113   -1.41970336041338
C         2.90464250642216    2.61099917710124   -2.61012018474397
N         2.92189852648020    3.97000986343135   -2.05807100983496
C         2.19419834690906    3.93394149643948   -0.78083154561962
C         0.68064593096131    4.05626739846136   -0.96712483993827
C         2.52290937606278    2.55423200727966   -0.18561426661950
C         3.87183106004425    2.70311613546318    0.49896251016069
C         4.94514832355847    2.96091912961464    1.19292040048698
C         1.81647273694808    2.54835524805659   -3.66953874144410
C         0.86905390349030    2.70480671699853   -4.55156216064461
C         3.10515469633172   -0.23805898735713    0.15572739531897
C         4.31895504671706   -0.84749997671348    0.79876554218964
O         2.00454665458288   -0.25601537196975    0.73169700612983
H         2.72831250969345   -1.26381550618512   -4.33254908567987
H         4.05617905491110   -0.09479345008507   -3.98159449392532
H         2.41960296493210    0.46160187560526   -3.92642707664830
H         3.53404300503416   -1.75321888632489   -2.07903061984373
H         1.90334948490461   -1.13843284013061   -2.06400694960569
H         5.02006900511922    1.18515901392023   -0.78492838506238
H         1.43487698124139    1.37215608699012   -1.47434171003354
H         3.90547615279859    2.36171260032707   -2.96071580146905
H         2.50514975918596    4.59002866674233   -2.75006589827076
H         2.53282334291653    4.81862873134617   -0.22850196951794
H         0.32367155667837    3.16681691036208   -1.49658105955454
H         0.43965463354827    4.95680885536006   -1.54324088271154
H         0.15225661718926    4.04222736652217   -0.00683537052446
H         1.82623113213489    2.23188829249149    0.59546694490856
H         5.84237569041965    3.11227099243153    1.74818148561854
H         0.18850059774787    2.38460116157481   -5.30659685584713
H         4.05724749549859   -1.10689481821121    1.82311825047834
H         5.13364460962406   -0.11771907704704    0.84450938786453
H         4.65784134691287   -1.68257988839758    0.17934001438092
