36
 energy: -50.514762928717 gnorm: 0.308954296808 xtb: 6.4.1 (79825abcba525fcdf90b791dcacef51065a7a4e7)
C         2.74235863175684   -0.71022628289446   -3.46042731907763
C         3.01013627207466   -1.02540944532303   -1.99605151893283
C         3.39880151969886    0.29722017925607   -1.23073377405696
O         4.77085417302057    0.60826347182872   -1.52708182596360
C         2.49839641936164    1.57934267714237   -1.44246208401661
C         2.71381488354687    2.46634228100990   -2.74342751817444
N         3.07184131768881    3.78884468151963   -2.21924189089832
C         2.32569916522809    4.00972164283491   -0.97157431257497
C         0.84284904429561    4.31510391083974   -1.19159003816935
C         2.54917756284218    2.63267637656072   -0.32370351697996
C         3.91549401087889    2.66274218417940    0.34163623344121
C         5.07680931941848    2.78139351810212    0.92242751612797
C         1.45531530251212    2.56545634457756   -3.59004465559809
C         0.52732170315851    2.64597334032172   -4.50239858994263
C         3.20022840105482   -0.08771154540873    0.27136050588388
C         4.36265130594903   -0.68300280746338    1.01475069975883
O         2.17148552288497    0.09058507560521    0.94463600441204
H         2.76621982863025   -1.66110295384028   -4.01941316112149
H         3.54090343420948   -0.11713287891053   -3.91735733739698
H         1.80122889404632   -0.20951406505713   -3.67267094884188
H         3.88317965771065   -1.69424662820191   -1.94728439289718
H         2.14436630674522   -1.48666753083299   -1.50458379608317
H         4.93313065555035    1.46834611317870   -1.10368963381894
H         1.52834364893415    1.06425221323658   -1.53727509193634
H         3.51252791054899    1.98718740862093   -3.30840289907587
H         2.92527000965183    4.53192103809509   -2.89991373031724
H         2.75134385040307    4.80149022855261   -0.34361295583696
H         0.41581198488958    3.54570556507244   -1.84315914276694
H         0.80168451446755    5.26934747047916   -1.72888523369129
H         0.33416889592600    4.49454727157580   -0.23734015448456
H         1.88014797797508    2.41667706449979    0.51599739570011
H         6.10185830974153    2.78680369968461    1.21480486129388
H        -0.46447529870067    2.62404230378481   -4.89178210532268
H         4.73298338930629    0.13958031597007    1.62408324932192
H         5.11127032075226   -1.02607724916155    0.29345932694233
H         4.09951381812713   -1.50976058446470    1.68042374740518
