36
 energy: -50.522469044437 gnorm: 0.300880604158 xtb: 6.4.1 (79825abcba525fcdf90b791dcacef51065a7a4e7)
C         3.52505306369512   -0.49898871776838   -3.63569767316800
C         2.99194323026232   -0.84221370941499   -2.25242897517543
C         3.37132636460997    0.32811217872693   -1.26626123946959
O         4.71792798011058    0.75200197693638   -1.53843784837043
C         2.47178527568122    1.62272846367654   -1.38538645786280
C         2.65907152492329    2.48899023320976   -2.70455243608711
N         2.94609819593370    3.85628391493107   -2.25723849564189
C         2.31106398998672    4.00521922047856   -0.93938457996683
C         0.84147860176874    4.42993949864181   -0.96038892598700
C         2.59608916277009    2.65746833457090   -0.25508859645375
C         3.95300278810516    2.62498920233688    0.42911316418567
C         5.14995997309782    2.81530608259409    0.90986554835053
C         1.41991204958716    2.32558496361238   -3.56953098198744
C         0.20633421763698    2.47082181649063   -4.02360136860108
C         3.08261201119570   -0.27950237999559    0.14488705243717
C         4.20197763020884   -0.81556626390367    0.99216727970767
O         1.89770196837798   -0.32154602151537    0.51586146582474
H         3.44217387954184   -1.39401877704903   -4.27542668405156
H         4.58456746802391   -0.26798457224529   -3.48641624825281
H         2.96885202613417    0.30473243877555   -4.11125837068564
H         3.53603467021095   -1.71958406251857   -1.87018306938976
H         1.90992204106672   -1.02393237300698   -2.24432655632696
H         4.96189859613738    1.58326101779777   -1.09704970493500
H         1.43343921730578    1.25287577637339   -1.40426812977516
H         3.48870811748072    2.11171281017143   -3.30128850994673
H         2.71343108442260    4.63259517457279   -2.87381501799688
H         2.83983471446404    4.77999486329972   -0.37146682991337
H         0.27202792980918    3.74627929548429   -1.59852011645412
H         0.79631911092391    5.45124745847338   -1.35516998469252
H         0.46680777605917    4.41194868099946    0.06958503220749
H         1.86865013386000    2.47979440015041    0.54404739417638
H         6.03904877321956    2.73809741339238    1.49278846666533
H        -0.66519939998567    2.33792450937730   -4.62237448477853
H         4.11085163804337   -1.89217884064893    1.12511993041357
H         4.14847263999646   -0.36529518730665    1.98855320743325
H         5.14263440162514   -0.55417745520048    0.49948980319442
