36
 energy: -50.521921607108 gnorm: 0.306341664378 xtb: 6.4.1 (79825abcba525fcdf90b791dcacef51065a7a4e7)
C         2.93820637550610   -0.79274542950661   -3.44836042334374
C         2.61717211545732   -0.88990915907698   -1.96413066091360
C         3.27450444654003    0.29348917616487   -1.15567309256477
O         4.65898073601165    0.40422215318315   -1.52724028842881
C         2.44396881629737    1.62567736544100   -1.34243898665275
C         2.77257871070620    2.55748393376250   -2.58720262802714
N         2.93252267338119    3.92068731922587   -2.06945699388695
C         2.16342988455676    4.01316486719229   -0.81960367885023
C         0.66399792123005    4.20999881963175   -1.05083928310524
C         2.57405674037800    2.66063414110595   -0.21299091225330
C         4.05756898241303    2.76249200289524    0.10199796857884
C         5.29988434302117    3.02781848342349    0.39577394356115
C         1.70381664821073    2.39582672610785   -3.65585596654501
C         0.91933779870214    2.70752509398820   -4.64957718925950
C         3.15270416904198   -0.14049376857634    0.34122851762568
C         4.44931617387629   -0.66140633533106    0.89410742055939
O         2.09813941744328   -0.22542274215906    0.99244410350689
H         2.50119118603847   -1.66073347623451   -3.97067780482163
H         4.02229190807406   -0.84497188301650   -3.59066146021618
H         2.56225091517112    0.09388336900422   -3.95237642680761
H         3.02664185864010   -1.83527729219776   -1.57613609634075
H         1.56500792507329   -0.84008004457958   -1.65700730210595
H         4.99509011746329    1.24942173508316   -1.18372187303243
H         1.38692278129230    1.31269598942556   -1.33990891830171
H         3.71521984322826    2.34826030761161   -3.09156582776462
H         2.84132182476070    4.64473683961017   -2.77966433277992
H         2.52685205336285    4.84637818639365   -0.20634496999710
H         0.28733691900100    3.32094723928226   -1.56716334540184
H         0.45519812624554    5.13029452598336   -1.60799264718887
H         0.11000746921714    4.32892525015714   -0.11249002214794
H         2.03984315706113    2.39400611416251    0.70509364356227
H         6.29884128188021    3.25574561947249    0.68966758662662
H         0.20320882249296    2.55274819614906   -5.42350559703533
H         4.94125917440733    0.18604692242001    1.36833316940530
H         5.07170116085249   -0.98220519192099    0.05261067741785
H         4.24241774471461   -1.41763392488280    1.65647428781925
