36
 energy: -50.515128085933 gnorm: 0.301532171206 xtb: 6.4.1 (79825abcba525fcdf90b791dcacef51065a7a4e7)
C         3.37664188422381   -0.49319862396002   -3.69020321263284
C         3.11708466165467   -0.86558920839730   -2.23782686141443
C         3.32056287631347    0.34806463551909   -1.25204696837708
O         4.70738312772839    0.70956635296337   -1.36669723102362
C         2.41002077076839    1.62862430775871   -1.42662160750481
C         2.79182046417887    2.58196993764432   -2.63948828929499
N         3.07972323195223    3.87867032137387   -2.01687588494056
C         2.21733469290034    3.98617058515983   -0.83073979678707
C         0.74031199754029    4.32095383736143   -1.04715107406982
C         2.44802115860044    2.59014366808001   -0.22756038179770
C         3.77258906918934    2.55724396844580    0.51731478261668
C         4.95547858582430    2.75324154369313    1.02957178674630
C         1.60492434220486    2.54987794525957   -3.58851572745564
C         0.47928054756515    2.76449804760706   -4.21053588646765
C         3.06720172253740   -0.28470018500418    0.15483175541500
C         4.32223351259568   -0.78679457648920    0.81135601172345
O         1.92903896731890   -0.44601584600316    0.62596261465832
H         3.44675237750256   -1.41498204749461   -4.29236665281644
H         4.30607912621857    0.06913535194562   -3.82490859156778
H         2.56947665827750    0.08053849353047   -4.13830507867787
H         3.97135123057525   -1.53224446347564   -2.04359616824248
H         2.22498804403467   -1.46157963964570   -2.00800911459143
H         4.73333535107711    1.66767205302715   -1.20330596954720
H         1.35048032953585    1.35062343337992   -1.55071682125009
H         3.69207303667922    2.30120243432118   -3.18487254258460
H         3.02154260536620    4.64821911568117   -2.68123229291510
H         2.69085388776513    4.78749477832414   -0.25102826743108
H         0.08214613119557    3.56090547194430   -1.48076487421155
H         0.64029043916854    5.20409267659323   -1.68826174227530
H         0.28162906140493    4.58412163215242   -0.08699435412517
H         1.70451010940293    2.19705134809490    0.47388359861092
H         5.92313646683691    2.43404482536293    1.34260676046428
H        -0.42144527228045    2.52186345943396   -4.72588357502620
H         4.71986709009593   -1.59474470249749    0.19965418052635
H         3.98721006930524   -1.17494302011445    1.77856427603705
H         5.05785616635628    0.02032504165696    0.86886776072670
