36
 energy: -50.517398921438 gnorm: 0.309749248936 xtb: 6.4.1 (79825abcba525fcdf90b791dcacef51065a7a4e7)
C         3.14146048714045   -0.49173423687642   -3.70129004295982
C         2.92498583683346   -0.75764258402623   -2.21876744583245
C         3.30516633446192    0.44046450921434   -1.26686238238214
O         4.69233453160177    0.63250661928268   -1.59241238568812
C         2.33458697136036    1.68630870284433   -1.33927962192915
C         2.76718669492378    2.61687341446424   -2.55278333865918
N         2.90061138207946    3.92741535365478   -1.90730386261916
C         2.06449298781097    4.01037333353223   -0.70056730554399
C         0.56167143723874    4.19133008619734   -0.92258477548934
C         2.38818681196662    2.62277839863497   -0.12114050740471
C         3.77047844102580    2.56051408652094    0.50798155204908
C         4.94630257208328    2.65192296237437    1.06397788212640
C         1.77273081422981    2.58589695878780   -3.70191487779957
C         1.00600478068752    2.56708149387340   -4.75634455276314
C         3.25833035029055   -0.25929819020684    0.13028810685058
C         4.50653609913843   -0.83078501506818    0.74152691504615
O         2.16577418331147   -0.42709204064547    0.69735753528150
H         2.80448379452666   -1.32043627858365   -4.34696844959296
H         4.19524947920573   -0.29397954699499   -3.92183589423188
H         2.55018662334392    0.38268765490852   -3.96064856289687
H         3.64032633231849   -1.54133665296693   -1.92544552269989
H         1.89064434693914   -1.04922108070883   -1.99746031696555
H         4.97808921858036    1.21946752482046   -0.87188625025624
H         1.29387224408531    1.35319304069205   -1.48507696657181
H         3.73569421861778    2.23955389558666   -2.87890021841866
H         2.88666531729502    4.69672571760894   -2.57433222477258
H         2.46826501484583    4.82291908534716   -0.08482068745956
H         0.20502212486002    3.50541210816792   -1.69795214251115
H         0.42241894697226    5.21910793954721   -1.27648142995721
H        -0.02639526597788    4.20640235338058    0.00234691337933
H         1.70399912935862    2.30786452244443    0.67388802766501
H         5.93090587622841    2.58534060419433    1.46691997724335
H         0.24893913225821    2.81766492527411   -5.46332497324152
H         4.22313276941723   -1.44413014720895    1.59508728136719
H         5.06045173651503    0.03043614137617    1.12865393996719
H         5.13648253958438   -1.25761247791244   -0.04388773004446
