36
 energy: -50.519898065320 gnorm: 0.305880587737 xtb: 6.4.1 (79825abcba525fcdf90b791dcacef51065a7a4e7)
C         3.10398796722566   -0.51275646757171   -3.71006003146356
C         3.22678981277456   -0.82140456831916   -2.22510284745960
C         3.44375697183333    0.44512728093367   -1.31135046770852
O         4.78674638821705    0.90179014930582   -1.54573702219176
C         2.35070583408005    1.57521828926290   -1.47727178910698
C         2.78906310543317    2.58530197769927   -2.62324664038707
N         2.95201596979426    3.87882317095441   -1.95077700851857
C         2.09236749078523    3.90293739889258   -0.75804396125029
C         0.60930253437966    4.21126798404217   -0.97242751296355
C         2.30576185459564    2.47387104069276   -0.23063045192739
C         3.55735333126473    2.45102980241467    0.63157520625727
C         4.51859149434032    2.38263921375275    1.50986548305555
C         1.71294707847316    2.63744745358963   -3.69546889839598
C         0.81049959085516    3.21583967639996   -4.43782718251560
C         3.34836928915964   -0.21119180633686    0.10428981652324
C         4.58373163577489   -0.79534319072361    0.72948955978352
O         2.25151869959852   -0.54017025541418    0.58605061968267
H         2.97453263636000   -1.45305502269131   -4.27244861359946
H         3.94041368418346    0.07024114714182   -4.10846237999464
H         2.23904536421888    0.09066527558273   -3.97319832595984
H         4.12695527962933   -1.44611636335602   -2.11850325455373
H         2.26503640854310   -1.25706222419218   -1.92662339405270
H         4.91550594890648    1.77822353520462   -1.14495996480637
H         1.39597738648204    1.05636433872050   -1.66326704540632
H         3.70146035738195    2.40590195276507   -3.19076401499197
H         2.88494242029982    4.64161851891950   -2.62204757311076
H         2.54443471976731    4.63902805554657   -0.08260919782510
H         0.06484771044410    3.38878003496059   -1.44777925395818
H         0.46634978697929    5.13094717649540   -1.55097405998933
H         0.17705480007024    4.27897933038646    0.03262239832507
H         1.49236422139758    2.13681880761787    0.42062525374055
H         5.44086693421623    2.25088853746700    2.02783167281910
H         0.20318156707683    3.31621642963994   -5.30779909640920
H         4.48633811792999   -0.74750459830157    1.81267974274347
H         5.48341171411464   -0.27099275879248    0.39181496919595
H         4.53058299938016   -1.82208208692458    0.35683309993804
