36
 energy: -50.521805781150 gnorm: 0.310463074944 xtb: 6.4.1 (79825abcba525fcdf90b791dcacef51065a7a4e7)
C         2.67071365753448   -0.73698282390874   -3.40304994964289
C         2.79683524073461   -0.88447954123524   -1.89381840790175
C         3.37303267770908    0.39282840494759   -1.17090623925995
O         4.73602066649360    0.60558090204143   -1.57599723287548
C         2.49097752276935    1.68669914748802   -1.38833103483078
C         2.77398393631273    2.49220925287155   -2.72875832426426
N         2.90918425333930    3.90739629854308   -2.36691224044247
C         2.35817069406113    4.12559829398044   -1.02119270599389
C         0.89225036706806    4.56159860469405   -1.05980673926597
C         2.57968916678057    2.77953430604454   -0.31057739843761
C         3.90203228573210    2.74245538955368    0.43804493295505
C         5.09701157834530    2.78876850996986    0.95759231584808
C         1.63463775391462    2.27746564160096   -3.71170330199855
C         0.66047587361470    2.12141390568928   -4.56417106817223
C         3.25871333485654   -0.10880625733411    0.30529994964574
C         4.43840644944757   -0.88579530229265    0.81797905323638
O         2.21757241328670    0.00607265996600    0.97330437780753
H         2.35654582598075   -1.70343237585879   -3.83255525878123
H         3.68198479761461   -0.51650895685803   -3.75933717615384
H         1.99649860003804    0.04456220010685   -3.74379428251512
H         3.44579278253499   -1.76355059777433   -1.75960085430796
H         1.80426996332160   -1.06427482212132   -1.46214142875437
H         4.95085571431989    1.38829038592065   -1.04069495746151
H         1.47447283251280    1.26035661063455   -1.40446576451579
H         3.71015748824463    2.14887848436976   -3.16742919913507
H         2.52466201648147    4.56673050461796   -3.04098999759523
H         2.98164582355549    4.92422319938849   -0.60180818765141
H         0.22507490078117    3.83194831746574   -1.53030021843472
H         0.70562410844721    5.55600710644301   -1.48085754558067
H         0.53446469310052    4.76762406267929   -0.04438014171741
H         1.80998194705813    2.65167766942099    0.45789991963612
H         6.00388025947514    2.77780495207020    1.51768892264034
H         0.00435632741907    1.92961687311609   -5.38177905489018
H         4.41429195161566   -0.94959583322899    1.90445177894471
H         5.32275917348175   -0.32908778084198    0.49180617624959
H         4.45226202246165   -1.87062837743500    0.34279255519434
