36
 energy: -50.516547879344 gnorm: 0.309993776719 xtb: 6.4.1 (79825abcba525fcdf90b791dcacef51065a7a4e7)
C         3.80446875271729   -0.15845125272235   -3.81547931447691
C         3.10379340960752   -0.55711474367370   -2.52491228608562
C         3.34965399363463    0.37087599044078   -1.27410981305167
O         4.75485442195967    0.67360767472392   -1.24471808381198
C         2.45632301097402    1.67163777109480   -1.37093373340993
C         2.87734593088717    2.73868398005898   -2.47085944748340
N         2.87509460727686    4.00533878764694   -1.73089551359386
C         2.00399742561371    3.85830253206134   -0.55541298700530
C         0.50989434189488    4.01712196029827   -0.84340969504022
C         2.34321582884153    2.44647834982996   -0.04785391795905
C         3.67424046034943    2.66689902054835    0.65228161486877
C         4.95914667678737    2.84581608185984    0.78287501261825
C         1.83823749134855    2.61759405842017   -3.57358164326687
C         0.85800294653716    2.64230492381378   -4.43298516650444
C         3.01365968047596   -0.43680984194349    0.02151449867959
C         4.18077183874296   -1.20316109498132    0.57719663382588
O         1.85320989491902   -0.40808409595502    0.46415726379446
H         3.88479872559522   -1.03777725924488   -4.47694272269873
H         4.80719801038770    0.15863024380181   -3.51181504136657
H         3.28727749278527    0.67842709670605   -4.27768391904368
H         3.46463906482436   -1.54449643966962   -2.19811883073622
H         2.01064648669154   -0.59261380038157   -2.61224385976596
H         4.75027173010152    1.59623795712553   -0.93801118988998
H         1.44207615664981    1.39535279189551   -1.70301806021657
H         3.80342434478043    2.51482095164300   -2.99905750159176
H         2.58467267994035    4.73880727563523   -2.37482008677602
H         2.32756823051878    4.60009133296596    0.18449083994828
H         0.25356712679133    3.18359019161387   -1.50552593475058
H         0.26223400341096    4.97222758601261   -1.32027342407411
H         0.00990251195962    3.91853146272358    0.12707283511011
H         1.57898979649443    2.02178903148835    0.61165458828101
H         5.91762611354130    2.98062854542709    1.22939712983661
H         0.03807150166108    2.70378993584416   -5.11099238433995
H         4.92799878845345   -1.40377781980146   -0.18862306511942
H         3.88191859447866   -2.14135126263052    1.05560826531992
H         4.53054767372191   -0.55422123571702    1.38492449434343
