36
 energy: -50.519711072660 gnorm: 0.310577815746 xtb: 6.4.1 (79825abcba525fcdf90b791dcacef51065a7a4e7)
C         3.33125627765057   -0.21106664670566   -3.77912781584652
C         3.13218247135750   -0.67287547704302   -2.34297183317755
C         3.41095681935337    0.47552391215898   -1.29914005352236
O         4.74533405924677    0.98696673045988   -1.45713443160447
C         2.40264202692923    1.68574624158109   -1.43352580327844
C         2.81953684124468    2.74316429933973   -2.54426891436009
N         2.95660367293441    4.03028688821658   -1.85398330886764
C         2.08403792782386    3.98427340898584   -0.67131645009442
C         0.61375001028426    4.33660658500836   -0.90503527374008
C         2.27816820127758    2.54497604663978   -0.16469100587918
C         3.47943838815358    2.40838818512991    0.75655555721834
C         4.50859896795165    2.34261620363415    1.55439791636406
C         1.74293311857020    2.68885361025580   -3.61589391553227
C         0.88975107044587    2.46962440207074   -4.57717626574430
C         3.30487644308111   -0.37091525159435    0.01088996230917
C         4.51675138776591   -1.17513908199703    0.38879316110956
O         2.22430835995390   -0.50857440018505    0.60823749269814
H         3.53255212992738   -1.08455533180842   -4.42232177582118
H         4.15128581358127    0.51390813524733   -3.79260956821414
H         2.43848828745872    0.35578129492654   -4.03039261323425
H         3.86363502328011   -1.44484866908565   -2.05843585096234
H         2.12479233081927   -1.07693054024122   -2.18246702266688
H         4.95737576813190    1.70391451804109   -0.83555504443457
H         1.43853906368577    1.23822964985842   -1.72600561568361
H         3.79436494243072    2.53633440596200   -2.98433781823419
H         2.73313003362444    4.75589575561473   -2.53259297440395
H         2.45105114240437    4.76304134822430    0.00782134338582
H         0.18351260331471    3.75083309260973   -1.72396258876483
H         0.61269299765719    5.39960066998667   -1.17150079114390
H        -0.03738457407752    4.17529574414829   -0.03811496826008
H         1.47067633836389    2.13532041780528    0.45133908030171
H         5.18856780801536    2.15252895373972    2.35298943587557
H         0.24631655041064    2.34264388618674   -5.41719396974785
H         5.33197731238501   -0.91242585323159   -0.28311713900057
H         4.21877861105830   -2.21954703721061    0.25162174637761
H         4.70624433623572   -1.02320770971201    1.45504812643832
