36
 energy: -50.515326546519 gnorm: 0.296774906026 xtb: 6.4.1 (79825abcba525fcdf90b791dcacef51065a7a4e7)
C         2.98672402778804   -0.43756240420933   -3.63689633218422
C         2.92341706818867   -0.83231985027502   -2.16869996625434
C         3.34814595668622    0.36952858465780   -1.24064458738630
O         4.74045645508468    0.62226041458814   -1.49500004195763
C         2.46408047885658    1.67260153519428   -1.38144750196573
C         2.73854617360348    2.55570855282443   -2.67391609726262
N         3.06512323965455    3.86140194405784   -2.09041090997643
C         2.26959651742138    3.98834435829260   -0.86028409183206
C         0.77374399385071    4.23853724296978   -1.06112850303420
C         2.57053598886048    2.63742270634174   -0.18918130282356
C         3.91643949756664    2.55511485662287    0.51236751389782
C         5.12551212456479    2.80975342955408    0.92872372493643
C         1.55088529573367    2.69772136451067   -3.61183901053119
C         0.63741658445472    2.41702103406636   -4.49887174069292
C         3.13195991079032   -0.20278502763995    0.19796991221792
C         4.33519161143986   -0.73121839851971    0.92681785422622
O         2.00052606129307   -0.39404607287996    0.67407720588319
H         3.04396998320597   -1.34049220727647   -4.26827707641292
H         3.94812627626352    0.05351609373628   -3.81791085414967
H         2.25437282852155    0.24462084325030   -4.06089279988607
H         3.63261876203862   -1.62960276278740   -1.89796193401477
H         1.88825022330290   -1.13054521243071   -1.96049713133333
H         5.01713032493753    1.26988773152145   -0.82465148752861
H         1.44417044842524    1.27772626627430   -1.51989290476552
H         3.57001603012730    2.10145100333594   -3.21153774514948
H         2.88840403398907    4.58213547856110   -2.78774388098710
H         2.60195881755289    4.78696420040271   -0.18637904762159
H         0.33938887134656    3.48753872466505   -1.72912072964057
H         0.61306275885587    5.21170543741642   -1.53871265319221
H         0.27888378970472    4.16783789120932   -0.08559622024848
H         1.80329129678356    2.31293510272681    0.52173169907564
H         5.96210167059997    2.74151388274691    1.58576293295454
H        -0.12597535324807    2.56580705650364   -5.22747126110990
H         4.64134977022861   -0.04107349498999    1.71106411138621
H         5.27422758912952   -0.77354750066795    0.36573727061023
H         4.09321718809622   -1.70009541176854    1.37248149428063
