36
 energy: -50.518978087561 gnorm: 0.297651140810 xtb: 6.4.1 (79825abcba525fcdf90b791dcacef51065a7a4e7)
C         3.39962509069244   -0.55997420105324   -3.70426451019732
C         3.01782090932218   -0.79968359592109   -2.25092121148255
C         3.36783504140905    0.39817705907810   -1.28720910938652
O         4.72050372073219    0.74383226848844   -1.63058717487941
C         2.39062230346536    1.63749349626256   -1.37965563850061
C         2.65707423777016    2.52180682515390   -2.67297608360495
N         3.05058332477799    3.82047599506145   -2.11568348574777
C         2.34156374075056    3.97375978413639   -0.83662741665344
C         0.87405915108796    4.38045239689009   -0.98339635711008
C         2.51302621625860    2.59280113876542   -0.18127509168609
C         3.85318883940730    2.48366705067740    0.52756585480750
C         4.66195730400708    2.72937237460048    1.52032584447364
C         1.44363561379661    2.36119217455962   -3.57418359168686
C         0.38885428587444    2.55306386420510   -4.31625256786968
C         3.15995994062527   -0.15882699525693    0.15862122697671
C         4.38639045318591   -0.80241716813198    0.74161998422500
O         2.01579126875823   -0.21092260394486    0.63983384533558
H         3.44850978329761   -1.57095343335858   -4.14327732457634
H         4.41882634927941   -0.16451986460346   -3.75961151885786
H         2.69319113546219    0.05621294314226   -4.25449149592041
H         3.53571752686095   -1.72317444095685   -1.94946821221467
H         1.94344563148256   -0.98372028873288   -2.12559986660631
H         5.02865929312161    1.59048919074440   -1.26514368256191
H         1.33135644181078    1.33746433779282   -1.43665031246086
H         3.51263262255119    2.10962009709392   -3.20669043550707
H         2.84195468149367    4.55008355197120   -2.79473184154568
H         2.85357088443769    4.78763011403163   -0.30949354073526
H         0.39676107191453    3.71834021519228   -1.71323932898534
H         0.79485572188894    5.39991386932760   -1.37758734674725
H         0.38318874255147    4.27990827579812   -0.00846796213116
H         1.75343657235500    2.45233707338463    0.59502854485643
H         5.65695963914163    2.85029695878102    1.88307483955848
H        -0.41058336759889    2.59191854658634   -5.01992260079086
H         4.13200100947782   -1.82921358902821    0.99862216120936
H         4.73710690462851   -0.20746174489752    1.59098313239396
H         5.13723414889002   -0.85021789129704   -0.05200411041158
