36
 energy: -50.517519370161 gnorm: 0.305327189828 xtb: 6.4.1 (79825abcba525fcdf90b791dcacef51065a7a4e7)
C         3.25042057107372   -0.63302736749976   -3.61566738121444
C         3.01058072094316   -0.75698826912694   -2.11815200219481
C         3.41982305590291    0.47369795778341   -1.22146187039564
O         4.75968261393959    0.85917771110075   -1.57257482722033
C         2.36240030400224    1.63395030249551   -1.40872630070237
C         2.74912451484388    2.55626590127814   -2.64382257594406
N         3.05981385787654    3.84615260859949   -2.01801871089856
C         2.24269990483770    4.02527598844699   -0.80870952418518
C         0.82765560671859    4.55227226851984   -1.05454332948943
C         2.25577107117512    2.60399692917869   -0.22072331262886
C         3.47491325959302    2.29598771825186    0.63322295767445
C         4.66611508109679    2.43371997593609    1.14519752678308
C         1.54615665957081    2.45966075919712   -3.56791192846205
C         0.59361664858706    2.50760384872828   -4.45696409285152
C         3.28227945934347   -0.13701432058972    0.21101961993254
C         4.57375088085146   -0.78277298914705    0.62734279674349
O         2.17024000796050   -0.34072053090702    0.72606673496866
H         2.85465360053158   -1.49639347324793   -4.17706602893534
H         4.30240075580517   -0.52215081535416   -3.89720371513621
H         2.74882728779995    0.24754823569507   -4.00870179751698
H         3.58533468752648   -1.63354029814353   -1.78163962161127
H         1.95474199740013   -1.00865167775347   -1.95775468912075
H         5.00677896698863    1.62537149527552   -1.02738932772715
H         1.41750323617883    1.13874822429335   -1.68667323382241
H         3.64738591775671    2.25663173460908   -3.18240856992655
H         3.04139224192430    4.67254481570786   -2.61274244923332
H         2.77181645137267    4.67563760530097   -0.10197633876643
H         0.05821511690190    3.78091686218144   -1.16339609124358
H         0.78808310664249    5.21188579543491   -1.92878895932249
H         0.46211064565385    5.21271356757928   -0.25972107373005
H         1.36381115551596    2.43820201197255    0.39268802213269
H         5.61404481236315    2.35410621336362    1.62616539838629
H        -0.29955569768532    2.39054085505180   -5.02643857256429
H         4.33387491396628   -1.74628474820386    1.07363822646069
H         5.04894915484726   -0.22580920236436    1.44120377179575
H         5.28310616550133   -0.77419013209231   -0.20490222892585
