36
 energy: -50.517479306431 gnorm: 0.299538712684 xtb: 6.4.1 (79825abcba525fcdf90b791dcacef51065a7a4e7)
C         3.37410334499657   -0.43441151797667   -3.69469375303443
C         2.91876786334360   -0.67600306252572   -2.26300073779504
C         3.37056566004918    0.40733408080936   -1.21020425759789
O         4.73961229969106    0.79551616505808   -1.41544687787267
C         2.42398776611836    1.67148611395722   -1.28304818042343
C         2.75380651289796    2.55099810485663   -2.56498527248984
N         2.96561663748186    3.89954499084817   -2.02784111989143
C         2.20927636454453    4.02066767338881   -0.77266471663539
C         0.69686032311642    4.15679288541457   -0.95861463121080
C         2.49807753698224    2.66282786930161   -0.11024660004430
C         3.83731230292762    2.65982661285490    0.60867118938841
C         5.11080909264514    2.86267214673783    0.80130950266542
C         1.65142730601394    2.43707092065657   -3.60526696572888
C         0.66573919784881    2.54853053235798   -4.45145872176363
C         3.09922055326424   -0.26773816850399    0.17346485465162
C         4.26385121785451   -1.01934921549711    0.75393355544841
O         1.96376174313869   -0.38593868982477    0.66352955260377
H         3.32360265410925   -1.43055750637291   -4.16622723246429
H         4.45222286359997   -0.24563890777451   -3.71024473429801
H         2.79000510398527    0.28149226839507   -4.26722870998537
H         3.28435151504865   -1.67718950075707   -1.98750034989183
H         1.82331223092633   -0.62530762333070   -2.22744637641225
H         4.84565254152085    1.63399066085109   -0.93476742175407
H         1.41435747524817    1.24156931065189   -1.38853879965460
H         3.65584302554979    2.27648925720717   -3.11060793024403
H         2.75858812591483    4.62299591294107   -2.71392983516156
H         2.53932473458473    4.92747584782639   -0.25192163894292
H         0.26534007306288    3.44231423669442   -1.66726637490912
H         0.52738702727547    5.11087560466932   -1.47044114712735
H         0.24561601894060    4.15732146151637    0.04034810737701
H         1.71659109174647    2.43315512680205    0.62179388538852
H         6.04534570787849    2.70187724129865    1.28816218253729
H         0.11431189834806    2.48818640324121   -5.36143030552884
H         3.94151956286758   -1.96953647211302    1.17621483420733
H         4.65625740544510   -0.47494970319108    1.61882562872542
H         4.96270225741472   -1.09335978555145   -0.08393279958416
