36
 energy: -50.519320213832 gnorm: 0.302397788269 xtb: 6.4.1 (79825abcba525fcdf90b791dcacef51065a7a4e7)
C         3.77125924785905   -0.26483787262466   -3.78424072794035
C         3.03870532355718   -0.54764211719796   -2.48084965878370
C         3.41060195220087    0.44268433948603   -1.31163305428710
O         4.80463087416184    0.76181642792070   -1.45974330769992
C         2.41718374703200    1.67156792708080   -1.36023049627539
C         2.81465845112992    2.65836504236967   -2.54087853711345
N         2.84215095462815    4.00407292205335   -1.95754281763134
C         2.06529447944079    3.98270082677539   -0.70925344244302
C         0.53988920846575    4.06720313581859   -0.78992460782570
C         2.40215024246866    2.59706249716068   -0.13265356625452
C         3.71167284278577    2.52979593758118    0.63612944180106
C         4.68378580575932    2.83040540164180    1.45140867633528
C         1.75768874330265    2.55239414574909   -3.62807243523808
C         0.75747265749706    2.81741349557551   -4.42140549032322
C         3.16957021035653   -0.38909648281426   -0.01012036279168
C         4.29375084933982   -1.21702447273600    0.54574003828280
O         2.00036237043454   -0.47778802230204    0.40035293070500
H         3.40273337188645   -0.99854304619314   -4.52117109713226
H         4.84374419034847   -0.43779595488861   -3.64977817051852
H         3.52503564407087    0.71818122282144   -4.17734715382016
H         3.24557926306329   -1.54324973625297   -2.05907388056873
H         1.96937248979371   -0.59576427607097   -2.72182418939486
H         4.99148566139892    1.43830515872993   -0.78685027057932
H         1.44078808922379    1.19831482290473   -1.55514862630719
H         3.84498387815338    2.48020018535923   -2.84651863019504
H         2.44315032577000    4.67915078818048   -2.60717975210664
H         2.42129999744914    4.74561354872784   -0.00666494379168
H         0.12604070626639    3.08914438976569   -1.05639649363699
H         0.24633621625409    4.83525026989377   -1.51441867465837
H         0.04456277959551    4.35461336307826    0.14473861486528
H         1.65626205104900    2.22510822916853    0.57773698584896
H         5.60201681429158    2.77377515571835    1.98981747811706
H         0.00745191712706    2.72534997808333   -5.17290730480967
H         3.85975640141278   -2.10734886630877    0.99745486804286
H         4.72228302024203   -0.62409155505218    1.36010020320592
H         5.11579512972152   -1.47011902171542   -0.12959447649582
