36
 energy: -50.513186692319 gnorm: 0.304825989527 xtb: 6.4.1 (79825abcba525fcdf90b791dcacef51065a7a4e7)
C         3.06816722199056   -0.33864324376864   -3.88563199980263
C         3.23634916983681   -0.74113471932227   -2.42784010794581
C         3.51873415163636    0.35005339321688   -1.32525756211771
O         4.91941526099925    0.66861620407363   -1.38615688423608
C         2.54374305112415    1.58846490932658   -1.44824361717376
C         2.90345184017786    2.67345967838906   -2.55236336201594
N         2.99769985076871    3.90994668997655   -1.76866489617136
C         2.07928740962538    3.81212146513572   -0.62448923339177
C         0.60618402419338    4.03589976422376   -0.97147542858008
C         2.42150390231763    2.39186873672231   -0.14313396464538
C         3.68826948855868    2.60151195148454    0.67035004380948
C         4.57989927620768    2.99577936350449    1.53614414367831
C         1.83461935573006    2.68916187231677   -3.63299093391953
C         0.83553303177901    3.13083069143123   -4.34488980198009
C         3.17971766324601   -0.47440965934771   -0.04103817768614
C         4.31303862176426   -0.97991598841199    0.80647265504190
O         1.96538699638174   -0.65970255208497    0.14462028674848
H         2.93274044826707   -1.23059518135574   -4.52067711340134
H         3.94500105935864    0.18938287362246   -4.27366481518935
H         2.26157860449794    0.34247668848104   -4.14442864027822
H         4.08848088141132   -1.43429035585062   -2.35481290371560
H         2.33032607281335   -1.31162983791627   -2.18801800260962
H         5.10933252686950    1.62213540390834   -1.39448231006009
H         1.52791874636323    1.22290299402994   -1.67134791007281
H         3.87272229071107    2.48588594081766   -3.01286304627552
H         2.70248771071759    4.70388988360010   -2.33387616246404
H         2.37142999247603    4.59372587989443    0.08695549876163
H         0.17623161899882    3.22429493002453   -1.56755871422841
H         0.48276401687713    5.00839396020807   -1.46135700183532
H         0.07156539581989    4.04547329888416   -0.01458487798367
H         1.64807910362209    2.00163147947467    0.52685325327270
H         5.32807158291120    3.49026693472441    2.11230336912006
H         0.23669016766939    3.33710232614620   -5.20197849588462
H         5.25595669875301   -1.19705936739014    0.30764478760527
H         3.94437684749331   -1.87538581732909    1.31697635341000
H         4.43464245423233   -0.31466986349420    1.66586224415918
