36
 energy: -50.519442947649 gnorm: 0.296434904628 xtb: 6.4.1 (79825abcba525fcdf90b791dcacef51065a7a4e7)
C         3.15372685167882   -0.64915457880780   -3.64513814822116
C         2.91557413226594   -0.85241134284581   -2.15604052228481
C         3.30341922631739    0.35816839681139   -1.22319866572981
O         4.66615475127342    0.69656873013595   -1.53228715267753
C         2.45473868292120    1.68370001091033   -1.37187141521769
C         2.86681502363492    2.63842844370037   -2.57369135920465
N         2.94107396960247    3.97125899497825   -1.96540324358571
C         2.10094409822900    4.01651412605576   -0.75945013412526
C         0.61256663518344    4.24604216758608   -1.02881817232604
C         2.41215793058602    2.63312647999688   -0.16336506406287
C         3.72271078501359    2.73527820735414    0.59979798411089
C         5.00450319231351    2.64350568035779    0.82033361365219
C         1.80702164864113    2.70114787412755   -3.66149172819972
C         0.84834140792333    2.49225009661141   -4.52017602318118
C         3.19719547532801   -0.26928878293520    0.20470361955719
C         4.45807145660258   -0.95432612153631    0.65095833745245
O         2.13947622382679   -0.22879056199246    0.85508148405720
H         2.80435250161476   -1.52681226348307   -4.21509913137326
H         4.23949682260260   -0.64498020056842   -3.78407977260334
H         2.74057970042066    0.26826071492424   -4.05640919674707
H         3.56144499022405   -1.69567353181678   -1.86675540705692
H         1.85510427666161   -1.03264955029558   -1.93976510768094
H         4.81624205119634    1.53626220467334   -1.06567657828370
H         1.41676115733617    1.37892161769169   -1.58405730565340
H         3.84913400839728    2.43408180785355   -2.99798009319383
H         2.73939468036075    4.78312768612076   -2.54605327998997
H         2.41632050352296    4.83816344961634   -0.10535803805970
H         0.21726684018502    3.45707903405115   -1.67700950908665
H         0.63444436605283    5.23454585992064   -1.50141021004795
H         0.04520633082425    4.30375528761134   -0.09269866289860
H         1.63089135844500    2.27277416794702    0.51422085142796
H         5.78692551327388    2.92237831458069    1.48837897569361
H         0.10003491708966    2.63048288067084   -5.26629322139843
H         5.12007278301200   -1.08067436701513   -0.20394830248238
H         4.19673155173628   -1.92290293814999    1.08908177878750
H         4.91695339157234   -0.36525336395057    1.44990202959029
