36
 energy: -50.511771229017 gnorm: 0.300261736039 xtb: 6.4.1 (79825abcba525fcdf90b791dcacef51065a7a4e7)
C         2.50318335350179   -0.71031143257954   -3.36190439992781
C         2.94705982825961   -0.93444773101518   -1.92378814047170
C         3.36927008096523    0.40108218922888   -1.19975815878805
O         4.71808358360308    0.65072620820253   -1.63043041738044
C         2.43642527322132    1.65212303921605   -1.45292548969078
C         2.87567779971821    2.52843777178142   -2.70385083556030
N         2.99315827156156    3.86845740251732   -2.11860572190685
C         2.19723013333995    3.98103174262416   -0.88734029520088
C         0.72861729247455    4.31906479739805   -1.15081651047572
C         2.35850236917595    2.59469308132059   -0.24081942437656
C         3.71248729591444    2.66513121004642    0.44632314984681
C         4.99763446500102    2.64672463798449    0.66565828748283
C         1.82640939626767    2.38431282671510   -3.79411192097155
C         0.82222034137600    2.79876194937893   -4.51513974046476
C         3.35626882196921   -0.16407279871776    0.25774715771794
C         4.60520067639129   -0.74974841710062    0.85388552720488
O         2.31583459747499   -0.14213600819583    0.93628742321899
H         2.22345385883104   -1.70090017971339   -3.75900176556602
H         3.27236753106472   -0.22453736772805   -3.97067191622613
H         1.65727421204979   -0.02809431699596   -3.33948115734212
H         3.82487034865396   -1.59683646565853   -1.87264108208165
H         2.14999424105617   -1.37771784936049   -1.31382483189435
H         4.96500790426255    1.47805370376362   -1.18333495681826
H         1.39411110374654    1.32309969614275   -1.59657397844319
H         3.82159534237710    2.10216562886630   -3.03590678200864
H         2.94297182162676    4.66040157326053   -2.75677930665127
H         2.59684482140696    4.85045354042869   -0.35178432285110
H         0.31975532650138    3.90653512707857   -2.07900179705693
H         0.48465482984624    5.38554583094665   -1.21454983494144
H         0.11381758646875    3.90168277857027   -0.34498661021856
H         1.63492465631643    2.36136713551264    0.54743701920277
H         5.85932553814237    2.57792425884112    1.28935231853068
H         0.32390187068588    2.92837757480140   -5.44822081741802
H         4.89780066798455    0.02447201858573    1.56102268798720
H         5.44928023422751   -0.92057697692062    0.17806081606290
H         4.42503327478353   -1.63317236317485    1.47274916461978
