36
 energy: -50.519224098825 gnorm: 0.312054329348 xtb: 6.4.1 (79825abcba525fcdf90b791dcacef51065a7a4e7)
C         3.45447551757132   -0.38716376479373   -3.79865841962493
C         2.92701827008934   -0.72967596066050   -2.41304807799597
C         3.33575696561571    0.32696753879448   -1.31643590883475
O         4.76167441237581    0.47338224305238   -1.42788428490563
C         2.49939814528886    1.66678262732197   -1.38568745233685
C         2.83645916467536    2.66529373900951   -2.57524615712794
N         2.81900931619529    4.01612573205600   -2.00348176419178
C         2.21617620092040    3.93866856660272   -0.66453376679419
C         0.69652426115750    4.10348477895408   -0.60126195847107
C         2.63634781442542    2.55559534108758   -0.13870385635817
C         4.09319377361771    2.72126680932993    0.26198852453712
C         5.27068504267233    2.93370812041448    0.78009362166223
C         1.69745539698993    2.39312121229777   -3.54426520651378
C         0.85912665639979    2.33026425789861   -4.54090894426099
C         2.92779515440494   -0.25209775852376    0.07717145461684
C         3.94397042557080   -0.68132087969714    1.09765319905500
O         1.69992439957338   -0.37285520380810    0.22261059443448
H         3.52885339021007   -1.27669987675248   -4.44703670930613
H         4.47436683969577   -0.00673183658981   -3.68328134977255
H         2.84949231448339    0.31787413918814   -4.36292975876522
H         3.39901560086822   -1.67427487804066   -2.10179645947062
H         1.84172397744418   -0.82443851515246   -2.28261212745113
H         5.02079878929568    1.38098383809377   -1.19453764894915
H         1.46296984455115    1.29112020054337   -1.38773284485815
H         3.79837182730777    2.47927300688234   -3.05153323266671
H         2.35926744335672    4.65443484704293   -2.65013364541109
H         2.62202934904478    4.73326981256291   -0.02711833250305
H         0.24904461024925    3.30189262833546   -1.19799367962912
H         0.42465472818806    5.10686836150391   -0.94806126202719
H         0.28532744242490    4.05466774989632    0.41366775598099
H         2.09974641981088    2.14068720081944    0.72110081981805
H         6.30548673294008    3.10725439368341    0.96799349908319
H         0.04612392705484    1.97227447702593   -5.12966327806514
H         3.40920857616112   -1.23448635480237    1.86779131583687
H         4.28562005090389    0.27191922183535    1.51358659544848
H         4.81753525546976   -1.17933697860732    0.66782205312229
