36
 energy: -50.513634500871 gnorm: 0.306395243991 xtb: 6.4.1 (79825abcba525fcdf90b791dcacef51065a7a4e7)
C         3.25695396810662   -0.25162728139282   -3.78730748906792
C         3.08007106217019   -0.58044551663453   -2.31216926263255
C         3.45380661885630    0.53659753436414   -1.26400054966734
O         4.81658862836705    0.96295157292280   -1.43176831862548
C         2.38240857530435    1.69452205790131   -1.36750605172337
C         2.83789841899594    2.68878100375910   -2.52061603998496
N         2.91724292680146    4.00015488155892   -1.86795296720742
C         2.05093079634482    4.00196326335265   -0.67980771373181
C         0.55791786639647    4.28332493066851   -0.85941207858284
C         2.25477808566649    2.58389438478036   -0.11993293548998
C         3.51962611525300    2.57006939523160    0.72290152154846
C         4.45888009023338    2.18135714291193    1.53945199454718
C         1.96766341748518    2.54544120187896   -3.75857811687377
C         0.94564814859161    2.53128070966187   -4.56810209387253
C         3.28144837746823   -0.35665211463356    0.00733286959098
C         4.52632092433470   -1.10328794515417    0.39599076724792
O         2.19377894396775   -0.52449728110236    0.58370488635344
H         3.30499473471883   -1.16788986839707   -4.39997047027096
H         4.26625834187322    0.16873120832948   -3.84043050052351
H         2.56692404954163    0.51682538920219   -4.12616508955585
H         3.74647352620560   -1.42998189829565   -2.09740924836176
H         2.07141766098631   -0.95431762201482   -2.09607865143387
H         4.93313360768080    1.86386505037276   -1.08520097128715
H         1.45772748075451    1.15727836724931   -1.63517031812237
H         3.86246847092938    2.47901835221044   -2.82555032354578
H         2.62435458039097    4.74587654352803   -2.49650319777190
H         2.42492987832309    4.79987615398235   -0.02722357383692
H         0.28631516582728    3.90957764272673   -1.85209616738672
H         0.36054700231870    5.35997971068308   -0.80630238093162
H        -0.09349514375707    3.81651736275343   -0.11154843036578
H         1.45817200452303    2.16359151730869    0.50305837340456
H         5.37945093206709    2.07993562078035    2.06718509410317
H         0.28966267422050    2.55026657866774   -5.40779511626256
H         5.27960636404068   -0.91944285350143   -0.36810152396604
H         4.22240987648749   -2.15480361848643    0.37742695936653
H         4.76160216732915   -0.88436164822700    1.44126794750974
