36
 energy: -50.513067948491 gnorm: 0.305810952371 xtb: 6.4.1 (79825abcba525fcdf90b791dcacef51065a7a4e7)
C         3.08314719085757   -0.48903045248015   -3.46954789351698
C         2.98876723508479   -0.80528188817893   -1.98411218765433
C         3.35684996849909    0.41545112537411   -1.05650931184303
O         4.71661593112525    0.74241016194480   -1.39002528498801
C         2.39844098001388    1.64065677884090   -1.33885603453034
C         2.73758260898394    2.38577071830058   -2.70101340354886
N         2.87593755365969    3.81845129582942   -2.41772840041445
C         2.33183311443750    4.10168819107045   -1.08134658698087
C         0.85664323458581    4.48714822422939   -1.20682610429203
C         2.53800995612614    2.78209610616531   -0.31839137101507
C         3.90007625723421    2.69455152120926    0.35057269828306
C         5.05056213453434    2.95606935050382    0.90558674554112
C         1.52044691723756    2.18840399163435   -3.58985113579002
C         0.58689814126063    2.42468568177588   -4.46888611796690
C         3.17840509630228   -0.18868746382794    0.37424745514236
C         4.30893597450363   -1.10666291817480    0.74498815972567
O         2.16504212550821   -0.08127197411123    1.08485204597575
H         3.02974035959069   -1.42348923230118   -4.05361593090058
H         4.01544240668716    0.04658680656372   -3.67487303479471
H         2.21490408954077    0.11317640273300   -3.72447159128633
H         3.71307219249246   -1.60342726474419   -1.75989698862512
H         2.01254330825553   -1.22721385777532   -1.71426511966159
H         5.06213140594949    1.44923573065931   -0.81875177514170
H         1.40050928542332    1.17269494641895   -1.31754572938789
H         3.62738046091786    1.96824579067600   -3.17075993679508
H         2.55910120903367    4.37481656758382   -3.20958204282774
H         2.95297231774407    4.93973883184352   -0.74331764491596
H         0.40012417085011    3.68545938551503   -1.79653969036011
H         0.61074921854675    5.43438049209182   -1.70002847138683
H         0.39563581490374    4.54554661855455   -0.21404715586058
H         1.88211825581432    2.68187348132217    0.55288093212978
H         5.91968709710413    2.81918379350876    1.50735361675877
H        -0.38500204406274    2.52682736748859   -4.89402010880107
H         4.35061588024227   -1.36454437641063    1.80179227318267
H         5.25140749218209   -0.69136433329023    0.37395410727315
H         4.06183449758560   -2.08697500505414    0.32807157044060
