36
 energy: -50.519331570923 gnorm: 0.313046942681 xtb: 6.4.1 (79825abcba525fcdf90b791dcacef51065a7a4e7)
C         3.40960568993870   -0.32572142970052   -3.78846015156401
C         3.21168274831526   -0.79171358352908   -2.35349687558021
C         3.38988163048996    0.36016290865924   -1.29163681398478
O         4.74870483729580    0.79607304708202   -1.46679518176222
C         2.39925204589112    1.57736671890070   -1.48259299782341
C         2.79460747040214    2.65855074560924   -2.57822965635351
N         2.83119072185152    3.98894719712489   -1.96124258020962
C         2.06841623543437    3.91877362248865   -0.70607729766250
C         0.59550114523051    4.30946796157660   -0.84168263740533
C         2.27749343831251    2.46915461010487   -0.23615784752671
C         3.56537034173999    2.43523951385240    0.57045511297407
C         4.47616764085947    2.54692381543112    1.49675141469796
C         1.80149885749939    2.59957840907053   -3.72743065262494
C         0.81455795205494    2.76059421013870   -4.56413034772799
C         3.21508349319017   -0.36473125384923    0.08235919118649
C         4.47870265521402   -1.04978122279572    0.52076635019542
O         2.22244540570492   -0.25298336830622    0.82099545660142
H         3.30443154181571   -1.19011824486227   -4.46592418597126
H         4.46762954688889   -0.09355674987165   -3.94626924868169
H         2.79306970464799    0.50136157015317   -4.13095446931166
H         4.01923448054698   -1.47642034534418   -2.05189610872911
H         2.24114431949825   -1.28684762773564   -2.22405723144096
H         4.81542600712683    1.59584994892748   -0.91794005406815
H         1.38538927303552    1.16361111168332   -1.60986690831881
H         3.82260069098678    2.44822004720653   -2.87100946428661
H         2.46374711636258    4.70642585661296   -2.58347191559785
H         2.49354065273341    4.62865643159407    0.01346560544439
H         0.11167759763880    3.59685751007122   -1.51768403022020
H         0.61354397211045    5.32026464922906   -1.26467900966779
H         0.07972774310737    4.37927538261435    0.12302093208490
H         1.52422154999563    2.12974732577299    0.48268712100838
H         5.34240363988807    2.67454646905187    2.10468799537494
H         0.07446603102286    2.97108759109719   -5.30150289083688
H         5.29084479400984   -0.81562406441941   -0.16528799940792
H         4.29939302363583   -2.12963679165309    0.50844742165900
H         4.74845086572717   -0.73778305496448    1.53357601460882
