36
 energy: -50.519997189096 gnorm: 0.303861539182 xtb: 6.4.1 (79825abcba525fcdf90b791dcacef51065a7a4e7)
C         3.02872053580265   -0.63128535823540   -3.64184553913501
C         3.05478778519916   -0.81869333422513   -2.13199769086960
C         3.42806697388397    0.43187076187555   -1.24719648693649
O         4.76480121924659    0.83636419485377   -1.58870083146329
C         2.42975213801433    1.64701583699176   -1.40901829990853
C         2.89479565139482    2.61336232726374   -2.58187529078639
N         2.97844895914548    3.97060240728966   -2.03154120370219
C         2.12184106053205    4.00835344465187   -0.83697563776129
C         0.65897771710353    4.35506623172737   -1.12040252383857
C         2.34093706891539    2.61679179279718   -0.21933017120448
C         3.60532483356202    2.55181698322982    0.62180205182804
C         4.80496390433633    2.39548800069930    1.10809131900268
C         1.87408607249583    2.50935370975215   -3.70336519067428
C         0.74305638736683    2.68864624402403   -4.32679994769193
C         3.27353790256824   -0.16014602243933    0.19138887641919
C         4.44519929593524   -0.89545842753861    0.77854551406714
O         2.16780286641718   -0.11126156782961    0.75562449708297
H         2.88573189301667   -1.59265651221776   -4.16388071367167
H         4.00377420124643   -0.23283908966288   -3.93972059967327
H         2.29784373087078    0.09061608022937   -3.99703939578194
H         3.77286778009272   -1.62384988706857   -1.91288536277604
H         2.06162800888426   -1.13819874470280   -1.79228142804605
H         4.90354828054948    1.65315155941568   -1.07983502338910
H         1.48728915312545    1.14604276561628   -1.68487982282960
H         3.85400270045931    2.25064449888745   -2.94941672718433
H         2.78224638974633    4.61354854029658   -2.79644943228530
H         2.43817599907324    4.83319138902537   -0.18737505019086
H         0.25370297128260    3.58566337255125   -1.78572077940361
H         0.57874559740606    5.36679368811640   -1.53384148311356
H        -0.01521383811339    4.36640276216027   -0.25617716027811
H         1.56429332646831    2.26115693405157    0.46601810607423
H         5.80084999597653    2.24458352043312    1.45691496664593
H        -0.00047526547181    2.49589392841106   -5.06556177252349
H         4.17554709855488   -1.94886790446740    0.72666905307366
H         4.67390548987872   -0.56941874617078    1.79824318816823
H         5.39177587332129   -0.70523895991252    0.26502852180954
