36
 energy: -50.516416838856 gnorm: 0.305785221371 xtb: 6.4.1 (79825abcba525fcdf90b791dcacef51065a7a4e7)
C         3.80006912894900   -0.26015393752763   -3.69415755479587
C         3.02526109917429   -0.59285162601535   -2.42749795067580
C         3.31061584506081    0.41146544871157   -1.24595617189377
O         4.69995753593639    0.75471477429265   -1.38382630040368
C         2.36669613143188    1.67967054570301   -1.25418769735292
C         2.78940012069794    2.68057914380336   -2.41401002335183
N         2.77065434288408    4.01223816679534   -1.79894989666760
C         1.92358402183590    3.95071961147714   -0.59858475517736
C         0.45252295986407    4.21048982566575   -0.92874913304948
C         2.35470537375993    2.59327844466081   -0.01770551239964
C         3.77305418615553    2.66798308684169    0.52368848412795
C         4.92639884132552    3.00663989668313    1.02881974448917
C         1.89078822370524    2.66608283930854   -3.63985337257541
C         0.86080770554166    2.75582381846837   -4.43429123651191
C         3.13063089889963   -0.51644998322958   -0.00077773852646
C         4.30615109078399   -1.33046171291470    0.46156938225464
O         1.99086913578199   -0.76018780462428    0.42926470260482
H         3.53815249291766   -0.96626689017810   -4.50038652220916
H         4.88411381471946   -0.21656543759968   -3.54867287100195
H         3.52048581241193    0.71929168223412   -4.07363709086365
H         3.35488372872573   -1.57450301132167   -2.05381941135505
H         1.95242638567906   -0.46663266843896   -2.61972605402187
H         4.93116403678997    1.12307665345684   -0.51423453507708
H         1.35959688557826    1.27218470060084   -1.44131457911306
H         3.78011207347278    2.41946237587937   -2.78419504095844
H         2.48723408250111    4.67476374505568   -2.51845847430810
H         2.24562146845212    4.75323483039844    0.07570566178681
H         0.11869840447472    3.40078289734652   -1.58587364101156
H         0.37812006731233    5.14234140691658   -1.50065669149546
H        -0.19103463050766    4.30856515803812   -0.04684034551441
H         1.63144038295983    2.20643562499808    0.70796266262061
H         5.89675150546817    3.07698676092733    1.46437255398716
H         0.23575058061949    2.69824842883024   -5.29554059592738
H         5.03998899776837   -1.47807596513859   -0.32885262972202
H         4.02493616869035   -2.28776985661676    0.91198144782835
H         4.79603068228715   -0.76608078775354    1.25993178612509
