36
 energy: -50.490105025753 gnorm: 0.308534521799 xtb: 6.4.1 (79825abcba525fcdf90b791dcacef51065a7a4e7)
C         1.10396214002025   -0.71278718087365   -2.47343096550389
C         2.04750000487286   -0.63661291342219   -1.28205547257404
C         3.30087816290562    0.27044999973383   -1.58603104830044
O         3.96890267990365   -0.04023139906358   -2.82066415986991
C         2.56290045584736    1.66639096193703   -1.66435145781922
C         3.48890085656401    2.94500334145205   -1.84699354920789
N         2.73659922757935    4.04199751332470   -1.22843706073212
C         1.51580405385587    3.57064693272577   -0.55785754130311
C         0.19015023498229    3.80905498457910   -1.28333206690850
C         1.70625401449077    2.04841462373795   -0.44618638358588
C         2.29905162945469    1.72454628064883    0.91546771280062
C         2.98263195379725    1.85141004541141    2.01849693032515
C         3.89488806034394    3.10140160273212   -3.30339985776526
C         4.20885738346471    3.47855316278519   -4.51138361744834
C         4.45538355933963    0.06943771972684   -0.55133191146079
C         5.62242573167741    1.01315058250180   -0.62647360378051
O         4.34823632965885   -0.92692175100279    0.18296283610654
H         0.21728832877777   -1.32721484103678   -2.24215369342101
H         1.66581307206247   -1.24036875864363   -3.25073389388829
H         0.73345410469645    0.24901549008124   -2.81860438263958
H         2.24855577161333   -1.69896685200281   -1.07491578264777
H         1.56792424022981   -0.27775569452130   -0.36277000592111
H         3.39926695145363   -0.36532565671896   -3.53841454261737
H         2.06385284531124    1.60252282677889   -2.64526043449992
H         4.41137836344811    2.83708924586433   -1.27767916244367
H         2.56170100770549    4.83918572282166   -1.83742091951339
H         1.40330060759694    4.08309606592178    0.40502626036749
H         0.32267944546599    3.48278573274097   -2.32008717184027
H         0.09268732446681    4.90054572013541   -1.29383794185851
H        -0.70289449095308    3.31246653446368   -0.88657107879253
H         0.71064357492099    1.59448768634910   -0.49161887346918
H         3.27607158389732    1.67150153964377    3.02734049828595
H         4.51738286961120    3.57846997280373   -5.52656361771108
H         5.65233233974289    1.46258858455750   -1.61752661760569
H         6.50213608313145    0.42613505670883   -0.34378257441950
H         5.54717511927660    1.82211543773399    0.10551244469859
