36
 energy: -50.517001601234 gnorm: 0.310682467714 xtb: 6.4.1 (79825abcba525fcdf90b791dcacef51065a7a4e7)
C         3.28166430995695   -0.45971509115954   -3.78104324868085
C         2.96704926453253   -0.81484510681921   -2.33524180342909
C         3.32031402502567    0.31315820012822   -1.29172198316743
O         4.72676572401009    0.55898243055194   -1.46072692242683
C         2.46400632815629    1.63247399466708   -1.45153224042310
C         2.96607609611662    2.62532766941656   -2.58636793246869
N         2.87718419095397    3.97513759659722   -2.01884919783892
C         2.11449470605181    3.92429800599375   -0.76270063322684
C         0.60260122655530    4.14384061979085   -0.84325417425078
C         2.49967598175077    2.54085277074427   -0.21165843970409
C         3.85892787662821    2.63302199543196    0.46238953690534
C         5.05629033471625    2.85186207429430    0.92981018470332
C         1.94582075993641    2.56330899165115   -3.71137378697821
C         0.78306788038564    2.54541710336575   -4.30106055302314
C         3.08328338868956   -0.17917425209528    0.17296781086090
C         4.24817791128914   -0.83705968134142    0.85739106097441
O         1.91042935973381   -0.21003134459077    0.58145620126874
H         3.13839608532548   -1.26254555639613   -4.52410342686627
H         4.29393699691733   -0.05439368385722   -3.87715356342346
H         2.57384708692517    0.31144027377625   -4.07395868351674
H         3.43169510253655   -1.76338975251989   -2.02492992652777
H         1.87773660655341   -0.94198832646397   -2.30223089845393
H         5.02279631246431    1.12169868760837   -0.72516383183744
H         1.38793743615979    1.42258438154269   -1.56699722204581
H         3.97698837075650    2.43804818200017   -2.94652324848455
H         2.46591671024265    4.65764151019983   -2.65288961068897
H         2.57653293065142    4.65259272488963   -0.08556413139258
H         0.04239644919867    3.30989249593870   -1.27865961009415
H         0.43374808252598    5.01615744727000   -1.48474726342153
H         0.13615392279966    4.29731235633905    0.13675684145799
H         1.84664369933712    2.14890336524922    0.57528400892107
H         5.98441811084777    3.13147241606316    1.37324686643426
H         0.01746652783718    2.44422517116938   -5.03548316284511
H         4.05667501169565   -1.73206955334725    1.44676272764388
H         4.62480361984878   -0.09164487694373    1.56513507712390
H         5.09482230697696   -1.03286178263267    0.19350464821621
