36
 energy: -50.516432269772 gnorm: 0.293053930039 xtb: 6.4.1 (79825abcba525fcdf90b791dcacef51065a7a4e7)
C         3.86640743845269   -0.43210188367411   -3.68936446147669
C         3.07120299844906   -0.70600921694080   -2.42126885748631
C         3.43656065837089    0.39996969467747   -1.35851511732905
O         4.82560893334435    0.73756755106919   -1.51236944856559
C         2.36899457072915    1.56290714533255   -1.44381149404580
C         2.65754026929725    2.60252107631383   -2.61069998184384
N         2.80371802148238    3.90478123788110   -1.95136952788991
C         2.02296429951339    3.84835938351289   -0.70660877387523
C         0.53837908473433    4.16303496993504   -0.90024696899265
C         2.30088473953275    2.43127596818797   -0.17692238726350
C         3.66646203118463    2.43783616869519    0.49057835010541
C         4.55762449498041    2.59997933927818    1.42844240800734
C         1.60786258112186    2.67553860924635   -3.70762777711502
C         0.67511436607738    3.32095568576831   -4.35063819999750
C         3.24255611730474   -0.37754625705808   -0.01623268617879
C         4.46656959077047   -0.89774333796371    0.68334838473438
O         2.11312107021980   -0.55146573853307    0.47113778717812
H         3.72644309070726   -1.28211969951996   -4.37862541997443
H         4.89927149306686   -0.31486012470633   -3.34634135929764
H         3.46385738274398    0.48831185702164   -4.10442743399337
H         3.42506751261075   -1.64382399999952   -1.96606614480644
H         1.97782058811232   -0.78422148244524   -2.46875496801798
H         4.95524624068644    1.54829103251394   -0.99154475706790
H         1.35868863789124    1.13261422142148   -1.54097107993007
H         3.62944721620678    2.36673910150161   -3.04259444595331
H         2.39754016166440    4.64315161280165   -2.52302371965072
H         2.44119418002171    4.58619678483570   -0.01156481937740
H         0.12426191746916    3.48533732991192   -1.65397745379321
H         0.46514448236047    5.19950365232223   -1.24857264980179
H         0.00640871406293    4.10719705914258    0.05653822501445
H         1.55127622937539    2.11977530140655    0.55820232072282
H         5.50672655070847    2.74665184507756    1.89096991768458
H        -0.18066503632090    3.30024378861867   -4.98544087197492
H         5.09983531414860   -1.50409373901215    0.03806650242693
H         4.21145531958719   -1.54600712545101    1.52777867221224
H         5.11394367778002   -0.11709648792358    1.09247874267069
