36
 energy: -50.517569785259 gnorm: 0.306451975304 xtb: 6.4.1 (79825abcba525fcdf90b791dcacef51065a7a4e7)
C         3.21965193105363   -0.53431096557805   -3.71828610464010
C         3.08984591204400   -0.83543979724024   -2.23238112708639
C         3.39867771348939    0.40936898999896   -1.31521425050738
O         4.78840633459346    0.74996774812352   -1.45573275853819
C         2.43497640122703    1.65836677401887   -1.41856159629822
C         2.70117330853256    2.60243902831393   -2.66898203608948
N         2.90407801657749    3.96147207484476   -2.15534310844491
C         2.29276494019040    4.03924320952614   -0.82026367240086
C         0.81095083330751    4.41759508926532   -0.78043226413985
C         2.50046355143317    2.63341431771910   -0.23167276511477
C         3.87519498369218    2.55038245151016    0.41146082534740
C         4.86042858585577    2.71442944671351    1.24958568256688
C         1.54905420723852    2.49924391392348   -3.65507417686157
C         0.61802189285347    2.45585766840088   -4.56685334695530
C         3.18603167188009   -0.21930018050702    0.10021773639056
C         4.30413081488052   -0.82198640978075    0.90324407247772
O         2.01387945915335   -0.32182466404049    0.49890236249894
H         3.02474671851284   -1.48778795877474   -4.23799232400138
H         4.19068771910006   -0.15816114629088   -4.05565747261669
H         2.50459586114641    0.20996162883692   -4.05922362238279
H         3.86900009511276   -1.54693443692143   -1.91834242202154
H         2.08417781342135   -1.21714775218943   -2.01607602796986
H         4.98816723596646    1.39653023448050   -0.75760004177397
H         1.43536195664950    1.19851865284725   -1.48653766471824
H         3.51014003871735    2.10084630159924   -3.19879959290295
H         2.45916998167045    4.59974039385613   -2.81232877765990
H         2.86049716581857    4.81272358262877   -0.28940155148498
H         0.21569570953093    3.63680960343695   -1.26511992171660
H         0.74820442042676    5.36459498828070   -1.32835150634870
H         0.47411327961161    4.59181680342112    0.24803042935121
H         1.74531842924939    2.32323521913419    0.49832634291511
H         5.72866721047426    2.35598658253470    1.75349008234759
H        -0.24621766455701    2.30520726118542   -5.17196178107142
H         4.42740569370019   -1.85433274495667    0.58053778245999
H         4.03382950685956   -0.82507203180163    1.96405481380779
H         5.22602810157730   -0.26220467342483    0.72257816622862
