36
 energy: -50.518986309351 gnorm: 0.305966046365 xtb: 6.4.1 (79825abcba525fcdf90b791dcacef51065a7a4e7)
C         3.32435775238035   -0.49841639718522   -3.65686205330888
C         3.12025879335388   -0.86354346693733   -2.19382834692302
C         3.45351374762034    0.36708073151446   -1.26612887517623
O         4.83626532464040    0.72712735360257   -1.42570053291680
C         2.47722926442410    1.60689378836021   -1.36167241669963
C         2.80028219157586    2.53834000825117   -2.60815918886709
N         2.90840229197517    3.90626480142360   -2.08945125167655
C         2.14798259602947    3.97469530979651   -0.83276183888028
C         0.66565885762077    4.31153476211834   -1.00528788751779
C         2.48454164861922    2.61378280611453   -0.19984953640817
C         3.89134989306442    2.64582297225362    0.37483781817244
C         5.08135097115613    2.77106485529382    0.89277778221264
C         1.61913488200152    2.43092415150769   -3.55882121748005
C         0.55869097517597    2.69494793044156   -4.27001388826438
C         3.10157240986119   -0.22299262664186    0.13809394181251
C         4.20349609263501   -0.95667856276673    0.84921758661019
O         1.90358337997363   -0.23504372047949    0.46684699386676
H         3.02636478565900   -1.33686055030800   -4.30909864208921
H         4.35194623269246   -0.14627373258333   -3.79205114875673
H         2.63678459907851    0.30199076670353   -3.91777736963469
H         3.87598279951581   -1.57901009900907   -1.83478113693519
H         2.10302532495234   -1.24471610249366   -2.03955366208295
H         4.97530397750728    1.47166914453581   -0.81605921866302
H         1.45796294972190    1.21015551738023   -1.49953104614397
H         3.73875131402390    2.33890443925855   -3.12413423170888
H         2.63728513530921    4.61653674124542   -2.76692378603731
H         2.53913414393262    4.77228026707465   -0.18990488901400
H         0.11037971199396    3.76165458298153   -1.77221266594429
H         0.72450683361546    5.36850164457811   -1.28869455853188
H         0.09547373760349    4.23240922443188   -0.07245546451563
H         1.81561533350458    2.26754413948594    0.59514120879244
H         6.04067780160000    2.72364394813485    1.35503582305666
H        -0.33158902613301    2.47151013789683   -4.81152923908137
H         3.92772543870934   -1.91065351993519    1.29526391498482
H         4.50010539528930   -0.28910277879124    1.66454405335323
H         5.02435332520347   -1.08032786029022    0.13732249120528
