36
 energy: -50.514694368559 gnorm: 0.300389945473 xtb: 6.4.1 (79825abcba525fcdf90b791dcacef51065a7a4e7)
C         3.44693045965960   -0.11024704302172   -3.87151423520800
C         3.23705865418303   -0.63305276749910   -2.45798327246988
C         3.51024800128145    0.41061112446978   -1.30809008362469
O         4.93682846069663    0.56957265018711   -1.22624868766727
C         2.57998581751888    1.68595022741406   -1.39480102539777
C         2.87751406230706    2.73437273427023   -2.55150828839890
N         2.69751848898700    4.05476150754417   -1.93820478123874
C         2.06634293860344    3.93050884528213   -0.61594617162487
C         0.53681247897120    3.91342924532539   -0.64341613114597
C         2.51664581697485    2.54532619851080   -0.12154835880870
C         3.87462648214709    2.72894866040231    0.53615439596370
C         4.91967273755459    2.58567928544409    1.30257604732912
C         1.88349794326019    2.53000911911342   -3.68313228658247
C         0.82915101649642    2.74838364165197   -4.41846211815594
C         2.95401567605274   -0.41571819365449   -0.10323471948014
C         4.02056471372740   -0.84617605267888    0.86392962981993
O         1.74349847515956   -0.69387724718886   -0.07721242950060
H         3.24630174127594   -0.99125999426033   -4.50457447918146
H         4.47520125353344    0.19997441762169   -4.08279710153306
H         2.72137712690802    0.63024717976116   -4.19820359226772
H         4.04591308774859   -1.37412075871457   -2.36579374711377
H         2.22092644628073   -1.04354445066097   -2.40479402266137
H         5.09994254357355    1.25099865684481   -0.55216475543627
H         1.56053143468774    1.33356566214145   -1.62250248852819
H         3.89602641828316    2.64177219572077   -2.92672395936873
H         2.32658222397223    4.79052510704975   -2.53655082278325
H         2.43164760114729    4.76001381565393    0.00120888670993
H         0.14434331995034    3.31661340022345   -1.47326887058744
H         0.14962540456373    4.92766321214292   -0.79300572529201
H         0.13437052662076    3.45802329889545    0.26883063080088
H         1.92034594756583    2.00730939319954    0.62297720095776
H         5.85948810940699    2.93460360511002    1.66484407408845
H         0.08207899789998    2.68311357157335   -5.17568402195568
H         4.78155491068948   -1.20679884143163    0.17405998120976
H         3.71623133298214   -1.65475800425240    1.53621540903849
H         4.44201748735797    0.04662304010249    1.33422497624841
