36
 energy: -50.501233572950 gnorm: 0.307283920582 xtb: 6.4.1 (79825abcba525fcdf90b791dcacef51065a7a4e7)
C         1.46395442532366   -0.81102856744482   -3.02993293625077
C         2.19164669237200   -0.95339450731771   -1.70115993791384
C         3.27158712819412    0.18787495149084   -1.56942638119689
O         4.23529483983317    0.23416887100892   -2.63536395874065
C         2.55415180928185    1.59583767740081   -1.52121998541781
C         3.36013902858077    2.83876841523814   -2.09671305749478
N         2.95172289042891    3.97033808575942   -1.25724153214352
C         1.74319908854494    3.65497774189830   -0.48122142885556
C         0.45114155530829    3.95701316985106   -1.24271447496587
C         1.89878389545585    2.14339689124168   -0.24279003528069
C         2.73108989199033    1.98894655617430    1.01967318837918
C         3.18189511321145    2.06158687134309    2.24096264901162
C         3.14144992546632    2.98356930023017   -3.59391484422665
C         3.56053947302983    3.23319307795401   -4.80308677901318
C         4.13721133770701    0.00194021727595   -0.28101109461274
C         5.37649438152619    0.84962817554457   -0.34290082378384
O         3.76172085877008   -0.72365814943625    0.65489242725697
H         1.00465908345374   -1.77077016463188   -3.32172880211142
H         2.20198163074975   -0.48350936066809   -3.76903079496718
H         0.64372110927727   -0.10864275473274   -2.90601059471288
H         2.61736154029265   -1.96099841784107   -1.57695291787585
H         1.54018108370727   -0.90596673706772   -0.81957026724913
H         3.65779239342667    0.45767500668399   -3.38494563586832
H         1.65604976370620    1.47834353737515   -2.14964494093637
H         4.44379551180361    2.73367993657879   -2.05964391186724
H         2.85444621277600    4.85228722931523   -1.75690414845306
H         1.78416349597072    4.25585146322473    0.43511859678440
H         0.34036815678366    3.33029509796135   -2.13368612064240
H         0.38617577622447    4.98220382109059   -1.62445390132853
H        -0.39017488845272    3.78651236638425   -0.56105152867198
H         0.90393167093636    1.72541952359278   -0.05592675973784
H         3.50179949400293    1.73757178665479    3.20476482342626
H         3.51310944562793    3.38741449468222   -5.85652303698572
H         5.17148751841756    1.85984961973775    0.00709891638274
H         5.84240034031447    0.84476020816131   -1.33350653987797
H         5.99441453801473    0.49224408038614    0.48555657426759
