36
 energy: -50.519726555727 gnorm: 0.309144978073 xtb: 6.4.1 (79825abcba525fcdf90b791dcacef51065a7a4e7)
C         3.41810919261794   -0.21461776961581   -3.73886469240906
C         3.18982399410947   -0.73815961912697   -2.32846347809413
C         3.50595930553924    0.40882965319689   -1.29376779829587
O         4.89317312013356    0.76888402981275   -1.40821109875101
C         2.48290044774454    1.60678116504397   -1.42665525791210
C         2.70845556328361    2.66665502935945   -2.58918557844713
N         2.71454319279190    3.99130240563916   -1.95891709324936
C         1.95849762605243    3.93320260285986   -0.69907240576752
C         0.43897511722718    4.06245756514580   -0.82095032556224
C         2.29965953298544    2.51809852841850   -0.20205949664293
C         3.56635384224075    2.50763733642595    0.63804625517445
C         4.64274017371813    2.37455091922290    1.36173844250279
C         1.74569403553968    2.63608768927095   -3.76500921886978
C         0.94279193174343    3.04194560817348   -4.70876361759980
C         3.29170386957887   -0.30238461057307    0.08179021101981
C         4.43679773875753   -1.10562678355247    0.63114412409063
O         2.19614277572316   -0.30357851070542    0.66757683045245
H         3.33288621276668   -0.95536365486742   -4.55202737553287
H         4.32523547172995    0.38192904105385   -3.87840840272437
H         2.63379219771157    0.49157898736102   -3.99889981144740
H         3.92519436295119   -1.53880462449447   -2.15490033547902
H         2.16660341092092   -1.09211869674417   -2.15072829989694
H         5.04066424784700    1.50449811260165   -0.78978160146431
H         1.50538064976356    1.10510934523968   -1.51660249653087
H         3.72455014533178    2.54052842124949   -2.96117072748209
H         2.34700379997037    4.69430185223107   -2.59740463960803
H         2.35974830930839    4.69648622179680   -0.02172289421370
H         0.05867302406912    3.23387993267885   -1.42733814488142
H         0.25744013642273    5.02205881999834   -1.31811418025793
H        -0.04938154214291    4.04015350949466    0.16015036019952
H         1.59443711610253    2.08364668328871    0.51436695194049
H         5.56018296332315    2.33429155476081    1.90295663420771
H         0.43037666382844    3.14124890199696   -5.63791980948177
H         4.46221990430048   -2.13617954165577    0.28130169747376
H         4.34652078361571   -1.06000433911336    1.72117183659167
H         5.41295777402165   -0.67400511294087    0.39301666649530
