36
 energy: -50.518374063694 gnorm: 0.292074453179 xtb: 6.4.1 (79825abcba525fcdf90b791dcacef51065a7a4e7)
C         3.03689432116323   -0.68724727313854   -3.56902828395483
C         2.88399570433337   -0.92367715984611   -2.07364716545663
C         3.35835450451812    0.29465433473114   -1.19229981954988
O         4.75958698240346    0.50779999517621   -1.43357775837103
C         2.53988542655305    1.63025164290025   -1.40603916040571
C         2.90504956442848    2.54647112937913   -2.65218580852746
N         2.80972698811638    3.92359321293605   -2.15578429028182
C         2.16589767832762    3.95228937727700   -0.83409995847271
C         0.67704375883261    4.30261979697608   -0.86715029934714
C         2.57633028570067    2.60438238495213   -0.21715211421183
C         3.95823044178467    2.78028822713922    0.39096850184784
C         5.21153586224214    3.13591970729663    0.44389961562289
C         1.89172022367122    2.41174831195323   -3.77709414917653
C         0.79798728145165    2.39829546185112   -4.48675046127027
C         3.08545505737477   -0.17902189557809    0.27229830072713
C         4.24616117313765   -0.86911404368653    0.93166299584052
O         1.94432624674892   -0.09448396516768    0.75611630554195
H         2.59862682709444   -1.55003294929959   -4.09886170233894
H         4.05881715628776   -0.38506735532805   -3.81918752062707
H         2.42804647517111    0.15565465620474   -3.88573935938975
H         3.43785190089729   -1.80128269753841   -1.70625365221925
H         1.83398598732022   -1.04588943659671   -1.77970680612402
H         4.92986426198411    1.35331802105746   -0.98475521943634
H         1.49768453155930    1.37122335753978   -1.65510080680561
H         3.91841139950621    2.35607227914513   -3.00371835701054
H         2.34843079551499    4.56832619825264   -2.79491258036021
H         2.72391521827958    4.75198426089340   -0.33259135928444
H         0.04552500369018    3.56699274039507   -1.37598588519934
H         0.56292518492074    5.24913977232141   -1.40755598120231
H         0.31722665587332    4.45918436058129    0.15635712282279
H         1.91577294270481    2.24759079216177    0.58016693711493
H         6.04910810154510    3.47427409684526    1.00978678164202
H         0.11963504591037    2.61886181230001   -5.27855252621757
H         5.08370173727388   -0.17583206307724    0.98607710388326
H         4.60815402129716   -1.74152765521076    0.37826674619471
H         4.04492108730519   -1.22192342572471    1.94700447981136
