36
 energy: -50.514951741204 gnorm: 0.306074651939 xtb: 6.4.1 (79825abcba525fcdf90b791dcacef51065a7a4e7)
C         3.12113430941000   -0.59430445423383   -3.78363025254846
C         2.88659261654098   -0.79248870019713   -2.29327628495916
C         3.36409185350212    0.28921039147365   -1.25018348734604
O         4.75385566651350    0.57519009426423   -1.48228418094410
C         2.51497863773455    1.61571550298210   -1.38725010766824
C         2.83389284985197    2.54844924750194   -2.63383984743945
N         2.81189012989564    3.93117976220417   -2.14441333532688
C         2.24195766344744    4.02093824675402   -0.79189363932846
C         0.74522033046141    4.32080483596000   -0.89371267698491
C         2.60192791107782    2.63221784924219   -0.23708744292777
C         4.00487408558933    2.75272998292001    0.33529395792353
C         4.91098289598095    3.03824739851108    1.22832059277562
C         1.81550607418494    2.39271770697180   -3.75144508056105
C         0.67100135555224    2.47289488081133   -4.37090081024051
C         3.12691105833557   -0.25059050944289    0.19766014269723
C         4.30760001234167   -0.93318339340725    0.82874508351168
O         2.01116370658002   -0.17191240062148    0.73832554951399
H         2.70983598708048   -1.43089266610356   -4.37367670718104
H         4.19055631803937   -0.43902219018892   -3.95810836509832
H         2.61420488442625    0.30265600904735   -4.12999674641605
H         3.43811207938773   -1.70736082975205   -2.02726608182433
H         1.86852950954332   -1.07699905102856   -1.99923794678371
H         4.85734506769931    1.49444392050232   -1.18295309046826
H         1.44712291245688    1.40865787420252   -1.56647443465543
H         3.80410530609706    2.26442824005926   -3.03973261303404
H         2.42830710018251    4.57080400532946   -2.83774201725221
H         2.73128682230321    4.79888777584402   -0.19376500519039
H         0.16663696517005    3.55351317454418   -1.41848077503289
H         0.58062240961536    5.26880320941086   -1.41827728065496
H         0.37812973284199    4.39270946635216    0.13663797858061
H         1.99501800433289    2.43629803145237    0.65321009667845
H         5.78709657853425    2.95886245222835    1.83028577580423
H        -0.09530635590208    2.45120662127606   -5.11121419141689
H         5.02457422024390   -0.22597597786304    1.24212221131271
H         4.91419474044182   -1.56407814218043    0.17116893676612
H         3.99435507132511   -1.53909588945077    1.68351874725444
