36
 energy: -50.514252777499 gnorm: 0.302841142011 xtb: 6.4.1 (79825abcba525fcdf90b791dcacef51065a7a4e7)
C         3.03694359079199   -0.35887365724983   -3.73855078831659
C         2.96893498880681   -0.83920724456325   -2.29629691620637
C         3.31084873750629    0.26920610148095   -1.22829136106775
O         4.69694156810493    0.55383712113161   -1.48290956355397
C         2.46373503161675    1.59544153233399   -1.37959982845039
C         2.86652968297918    2.45940915089685   -2.65121332210239
N         3.02416159532294    3.79790847842676   -2.07195706096103
C         2.23931837076641    3.92785406956409   -0.83529851078872
C         0.75150433003455    4.27573545062251   -0.91209461504802
C         2.47529939441895    2.55657289242861   -0.17968146485957
C         3.82437260367335    2.72654316468994    0.49966609839032
C         5.07824707527088    2.87562019580312    0.82466567993518
C         1.80136053866337    2.36634770709025   -3.73156494220053
C         0.73198235982293    2.67580324509743   -4.41032292032284
C         3.10043765431054   -0.19962824031258    0.24812742652655
C         4.30621832560775   -0.69146898808329    0.99806961966881
O         1.95316823307098   -0.25241709556186    0.72182320097813
H         3.00574537196310   -1.26670436132904   -4.36470656233455
H         3.96664058833598    0.11569508324417   -4.06819700170498
H         2.26607066768008    0.34666011378815   -4.03765327254083
H         3.71621300643298   -1.59984941140010   -2.02257220298315
H         1.97204186320006   -1.26893631854876   -2.13694137625974
H         4.82116988607904    1.43250783772662   -1.08561640556254
H         1.45690669252859    1.15896264897299   -1.48492285098075
H         3.79500002354440    2.17711099134747   -3.14616749550499
H         2.76404241726771    4.58323010057156   -2.66573120416266
H         2.71542585597230    4.66970463222086   -0.18308247395907
H         0.24782977101269    3.48350731739984   -1.47562215098699
H         0.60917464755872    5.26119318473110   -1.36989012320366
H         0.27699309237966    4.26758910475783    0.07599494231634
H         1.69469652910056    2.25819998760283    0.52812265359800
H         6.03112742802439    2.90155556011240    1.30172499334680
H        -0.07449622495444    2.43858401592108   -5.06536575592356
H         5.00425868828745    0.09411534599158    1.28209760092251
H         4.91803293516865   -1.32228250328421    0.34526878287085
H         3.93749883740792   -1.31723630067356    1.81559733895655
