36
 energy: -50.521442123973 gnorm: 0.301086111535 xtb: 6.4.1 (79825abcba525fcdf90b791dcacef51065a7a4e7)
C         3.35734763847285   -0.29908829957720   -3.91757103610854
C         3.19088234907017   -0.72015993987125   -2.46483921509022
C         3.47437786245541    0.41174669211681   -1.40439651759934
O         4.84193088721896    0.80536223317052   -1.60924793489325
C         2.45626876192328    1.61916465053829   -1.47505099020867
C         2.89703569545281    2.74606111570879   -2.50534867887644
N         2.72851171542561    4.00011474156232   -1.76311202946936
C         1.93055493846747    3.82625756388628   -0.54031696357998
C         0.41730394176269    3.95198953324948   -0.72679110905189
C         2.37406231283874    2.40448465319858   -0.15587475791222
C         3.71613796166751    2.35086280036977    0.55571446159873
C         4.67499042105011    2.65693027928660    1.38455375013753
C         1.95624557775651    2.70888249528334   -3.69863700553969
C         1.01689093932167    2.88221815872318   -4.58611228567857
C         3.22240640277347   -0.26469613698173   -0.01773635447821
C         4.38107174654587   -0.81348647570126    0.76619695943307
O         2.05652453162831   -0.39606061688103    0.39075394024150
H         3.47673095877119   -1.18775056789307   -4.56039913478030
H         4.20659170578535    0.39063435669557   -3.95342907824124
H         2.48267883459283    0.23404550571408   -4.28117534657012
H         3.79497817683083   -1.57092236485147   -2.11384393548921
H         2.17500876431988   -1.07420074745900   -2.24917015288148
H         4.99018735068308    1.52120153871686   -0.96820904133794
H         1.48412637792348    1.14295152015572   -1.68354630433878
H         3.95638368702396    2.61878888222084   -2.72515008164468
H         2.32346896471204    4.78414462689218   -2.27124318815036
H         2.30282805314028    4.50938178118929    0.23244456453388
H         0.08568094026417    3.15270494772438   -1.39764660418004
H         0.16460875939965    4.92656274988171   -1.15958852281385
H        -0.05746690667321    3.87758028112869    0.25840133736886
H         1.64176486702595    1.92617738348778    0.50315218542717
H         5.59233953428264    2.46937086501322    1.89399588744497
H         0.36353286330792    2.91880854772939   -5.42726989715460
H         4.01321983554295   -0.81687845953011    1.79076929299604
H         5.26037389700458   -0.17386060682108    0.63931821127646
H         4.57943350513882   -1.83966118129069    0.44446966854644
