36
 energy: -50.502404704383 gnorm: 0.299407026913 xtb: 6.4.1 (79825abcba525fcdf90b791dcacef51065a7a4e7)
C         1.46991616386550   -1.07689858906639   -2.96328990221911
C         2.21939517079660   -0.83166580445223   -1.66191222142422
C         3.26753692507927    0.34279441937263   -1.57156229254200
O         4.17166588516186    0.20655557029994   -2.68110651918626
C         2.51464942947639    1.73199928261074   -1.62320140422326
C         3.42569778816373    3.01485171797788   -1.84672995162633
N         2.73714150618229    4.10210556291639   -1.14264512631291
C         1.51019939284508    3.60245168026273   -0.50456348458917
C         0.24349159085999    3.98176241561288   -1.27403372356322
C         1.74840442349555    2.09180797539242   -0.33980058583487
C         2.59727520509471    1.97624277371461    0.91577286711366
C         3.57994749928379    2.18529379418649    1.74685816654971
C         3.56830488645694    3.36442938954125   -3.31909677525690
C         3.60985632998350    3.29945745691137   -4.62067157386761
C         4.05997136696727    0.06362216516353   -0.25322946686663
C         5.52213970856682    0.40061873476076   -0.33523387547147
O         3.62436261098584   -0.60251579292953    0.70066083993990
H         0.65406528647725   -1.78530939026227   -2.74025973875140
H         2.11712742712667   -1.47474718936246   -3.75135887097991
H         1.09245281751890   -0.16357872416051   -3.41589736198081
H         2.88158380220347   -1.69525757146266   -1.49565445329894
H         1.48532516925960   -0.68874055098365   -0.85906056269028
H         3.68561042206118   -0.18541138369776   -3.42639085943813
H         1.85267941957518    1.72330039923889   -2.50469451687111
H         4.38026917102369    2.98488358693457   -1.32268371210474
H         2.68016391115639    4.88526255707232   -1.79101111405827
H         1.39351445629012    4.10821765183032    0.46135150719109
H         0.32568504117240    3.41845792830244   -2.20934600129157
H         0.15417893567279    5.06443397009355   -1.41827993954566
H        -0.64096163152988    3.66654326036067   -0.70841226200096
H         0.84212888009295    1.49278885325776   -0.20125581874439
H         4.14595324455255    2.11732756068190    2.64755640936135
H         3.76871029242929    3.70909932420468   -5.59160965412703
H         5.70312311669472    1.47276890456416   -0.38828115992928
H         5.79615106540243    0.02792245633947   -1.32740674920061
H         6.08397592197266   -0.06373491798959    0.47999990759911
