36
 energy: -50.519623540755 gnorm: 0.312864961207 xtb: 6.4.1 (79825abcba525fcdf90b791dcacef51065a7a4e7)
C         3.18371303900636   -0.63384294688004   -3.66725650776879
C         3.12815085114394   -0.93757145411049   -2.17725529310053
C         3.36488597817943    0.35511181316063   -1.30602195378051
O         4.73741798326315    0.68619877049099   -1.57738135140624
C         2.37226866060954    1.57225311750933   -1.48678217834845
C         2.75474617631390    2.60739933496968   -2.63040263552300
N         3.02077466221669    3.87763240804876   -1.94651458060272
C         2.17617577283907    3.89424656327065   -0.74295078094911
C         0.73935722207715    4.39481181556625   -0.90262738136789
C         2.33592164965935    2.45378509907790   -0.22769852403410
C         3.70442031949796    2.50919274052712    0.43150024940343
C         4.70357590643841    2.74531019924626    1.23523317261715
C         1.65387467672215    2.63366318069837   -3.67816096210262
C         0.77394427218401    2.83301185197175   -4.61945123752297
C         3.19379003311781   -0.23913617664837    0.12976579745738
C         4.45183997978956   -0.76766449977236    0.75920668202529
O         2.11095275528791   -0.24197329725099    0.73874599331981
H         3.08122854010901   -1.61715711960110   -4.15694124272172
H         4.13270309085510   -0.18513052259214   -3.97756872547837
H         2.38692315049614    0.05054316223429   -3.94694704579530
H         3.84432275910265   -1.67966600300200   -1.79213239440342
H         2.10778431649101   -1.25089780871678   -1.92321608379961
H         4.92419433748739    1.56251309035249   -1.19985709998799
H         1.32984587534869    1.22656241256272   -1.58250441752069
H         3.63010959013044    2.24422862532420   -3.16759441048794
H         2.81651743698809    4.67942180975071   -2.54012431337926
H         2.67400482242611    4.58896709924213   -0.05597481276861
H         0.04526840670619    3.83983095368467   -1.54224736228242
H         0.74991587079110    5.41580983328296   -1.30063866150707
H         0.27830868805310    4.41323505701653    0.09167794893871
H         1.60572509656275    2.21845069363064    0.55382859682285
H         5.64008279537050    2.72570643165281    1.74396667944171
H         0.11197451257933    2.69891732601404   -5.44381552051126
H         4.14225743552275   -1.52750584946413    1.47466092515177
H         5.06483714638081    0.02169612329285    1.20590123832792
H         5.03554310157210   -1.20534474985212   -0.05542024877918
