36
 energy: -50.514590837487 gnorm: 0.302947532973 xtb: 6.4.1 (79825abcba525fcdf90b791dcacef51065a7a4e7)
C         3.82790660451422   -0.23009799065750   -3.79657393361536
C         3.02114394969180   -0.51116838873850   -2.53737767703070
C         3.36140012111942    0.39961999093998   -1.29608347044708
O         4.74211067688281    0.77605991797606   -1.43403244384243
C         2.47656959670957    1.70929354348209   -1.33110388778476
C         2.84882034741457    2.75940135666059   -2.46441206256372
N         2.61994556216088    4.06352965074114   -1.83288073400351
C         1.87953483246003    3.93043807494288   -0.56944585085165
C         0.36312091950839    3.81640837623732   -0.73676530264842
C         2.39701752030547    2.57367618970476   -0.06215730262910
C         3.76610892987837    2.66956660442658    0.59113842346172
C         4.80486199296301    2.91734249790135    1.33923540085471
C         2.03994122754237    2.65599964586593   -3.74715444530771
C         0.98447176664638    2.65654888389174   -4.51267957522113
C         3.13814990008539   -0.41720325011337    0.01801319126484
C         4.26043440756273   -1.31937878422989    0.44787879504071
O         2.01737975648433   -0.32807586457889    0.54653194581408
H         3.49431979142309   -0.92015644494542   -4.59013561167141
H         4.89058834103727   -0.42949164351637   -3.62578656645655
H         3.71353834326570    0.73721058042437   -4.27898381311493
H         3.36278797012137   -1.52205693520493   -2.26661971550037
H         1.94458820664775   -0.46585162078760   -2.74433491146789
H         5.06238450520532    1.43828674027853   -0.79825177666129
H         1.45667904690416    1.33317693615284   -1.51459673687975
H         3.90759040750173    2.65953010280117   -2.70054922565124
H         2.23897710009971    4.77891026478084   -2.44936542762338
H         2.12825286524262    4.78065392865614    0.07683480900392
H         0.08035755524705    3.05875482557026   -1.47492703091577
H        -0.15244111218411    4.76601209857589   -0.91954925821510
H        -0.02706658742018    3.46360910240262    0.22491792854402
H         1.73615055224023    2.13890342441782    0.69519426950787
H         5.85536534645672    3.06910281164447    1.43747355789308
H         0.27307396339686    2.66549230618852   -5.30614977742511
H         5.17280205647227   -0.72760501022890    0.49751817169442
H         4.34490420410214   -2.19144237740769   -0.20844557801433
H         3.97762477280017   -1.64898212086034    1.45150756963046
