36
 energy: -50.518338845244 gnorm: 0.303987352044 xtb: 6.4.1 (79825abcba525fcdf90b791dcacef51065a7a4e7)
C         3.25703837563871   -0.45034925090268   -3.68938520580307
C         3.10481028691289   -0.82976508400168   -2.22367308788881
C         3.40770387771086    0.36986914839718   -1.24630199356257
O         4.74174556242471    0.78557307771542   -1.58486012990752
C         2.36445537919353    1.55144183365833   -1.36842861598150
C         2.75961112805897    2.50385186987565   -2.57774724469969
N         3.01929849554446    3.82616391955893   -1.99807543609438
C         2.25647689617084    3.94232284527317   -0.74635684090500
C         0.77513014247658    4.23698363154365   -0.98986567152219
C         2.39048814602285    2.52047499238268   -0.17511038971772
C         3.77068212854411    2.58952286692383    0.45789715379000
C         5.00029612832794    2.68414609217061    0.88115330579287
C         1.70542064257784    2.48681847606197   -3.67264342654473
C         0.56819923259905    2.68447440146771   -4.27902977383823
C         3.12385849169336   -0.23764839463447    0.16587546929122
C         4.30110959783634   -0.83416649226429    0.88453648890565
O         1.92329091238662   -0.26271234855087    0.48432606883380
H         3.33505151210116   -1.36233588194324   -4.30533594023474
H         4.16229532676388    0.13290591551957   -3.88570609870738
H         2.40038877859371    0.12709563626637   -4.02731143744376
H         3.81060064320755   -1.62355307379880   -1.93438643777026
H         2.10606439530451   -1.19340782273556   -1.95140890079565
H         5.03522158565506    1.45713766598788   -0.94594731962170
H         1.35691219427774    1.13021967394010   -1.51922212609894
H         3.70291655785153    2.21991036240639   -3.04280762754242
H         2.75041120811951    4.57435393499886   -2.63437025830794
H         2.77711258128421    4.71294965916044   -0.16542728134822
H         0.21475087010409    3.44271116398761   -1.49383301100956
H         0.70372134564619    5.16879412164234   -1.56222168842958
H         0.21980561244784    4.45540716496117   -0.07037990195751
H         1.64491316513760    2.20326848418267    0.56167444440587
H         5.78756554840430    3.10759881697924    1.46178561205809
H        -0.19308705412657    2.95575636178261   -4.97373191551159
H         4.87050161967483   -1.51667365818918    0.25600511444778
H         3.99345578022757   -1.33603017584448    1.80750653934000
H         4.91490911227766    0.03809371545216    1.12599592226434
