36
 energy: -50.509118628248 gnorm: 0.307720142233 xtb: 6.4.1 (79825abcba525fcdf90b791dcacef51065a7a4e7)
C         1.42326306210273   -0.64330262313795   -3.16850097290849
C         2.41954272498432   -0.89783051762474   -2.04685746587804
C         3.30241491040439    0.32398342953381   -1.58444158731753
O         4.34764482599478    0.49878928066810   -2.55605670966197
C         2.54554203014105    1.69421302723402   -1.36305814492714
C         3.41533585658667    2.92320712403342   -1.87170018578884
N         2.79108168606607    4.09502488627859   -1.24790857034408
C         1.59894762918407    3.66160466736208   -0.50416638382001
C         0.40257062750427    3.80104123492612   -1.44743159102374
C         1.90020961255858    2.21726686556439   -0.06935334597785
C         2.90139870930982    2.25068963480007    1.07384607697534
C         3.53318208987651    2.55241433290964    2.17378330390258
C         3.37587133772159    2.96403888591251   -3.39064084654024
C         3.05289215910584    3.03814489764238   -4.65168707339214
C         4.01231031948790   -0.18305888333350   -0.28719544017089
C         5.48657046985362    0.07504402540098   -0.15240826545447
O         3.31811447505084   -0.64574255848005    0.63335735733233
H         1.11209331921027   -1.62131546094824   -3.57330370506729
H         1.84782091171006   -0.05885110256354   -3.99092767528444
H         0.51487357651966   -0.16979653714417   -2.80503736214801
H         3.14492118795405   -1.65724396391957   -2.37707476913068
H         1.85822121725551   -1.25808089921244   -1.17565426952016
H         3.97934370063002    0.83650803877900   -3.39010531535837
H         1.71290704660180    1.60587114966749   -2.08015283102805
H         4.45185110432894    2.93570944295618   -1.53672419142007
H         2.64710333460089    4.85978365436399   -1.90469928150665
H         1.52604636125868    4.29611514109901    0.38717430685901
H         0.58324519570145    3.10102283103426   -2.26975008123442
H         0.22316594729729    4.78385917523868   -1.89781395239858
H        -0.57238725160037    3.58804973423554   -0.99395611294786
H         1.03242527553593    1.63334305882134    0.25520365706604
H         4.25759600964343    2.54057231749347    2.95565507966875
H         2.93628070165787    2.88605713289773   -5.70003476206620
H         5.57260002172111    1.15784624223341   -0.22461131822080
H         6.01441954602073   -0.37178376756631   -1.00100241146451
H         5.79149966283079   -0.33571080834176    0.81412627887184
