36
 energy: -50.517558819027 gnorm: 0.297719636702 xtb: 6.4.1 (79825abcba525fcdf90b791dcacef51065a7a4e7)
C         3.23111863146916   -0.21998775995141   -3.90019651667475
C         2.86453923896282   -0.66294018518801   -2.49134788557614
C         3.35005665548676    0.29086479267191   -1.33348349253889
O         4.74139071543969    0.60047536131156   -1.52171050299342
C         2.47304532383615    1.60565686649082   -1.37309747455475
C         2.84916477397185    2.63961782799051   -2.51989448406185
N         3.07005986432368    3.91826967060805   -1.83562778225271
C         2.24174979076007    3.88866873032709   -0.62104334956012
C         0.74758460475080    4.06640620728854   -0.89742990493997
C         2.52737679037290    2.46911188147793   -0.10219035786465
C         3.90926871025203    2.51290886219462    0.52936183895730
C         4.91561795479609    3.16628883188452    1.03966152489277
C         1.75479089002693    2.61791610846371   -3.57454144409582
C         0.71566034799773    2.31459331612674   -4.30134802442718
C         3.05965436629678   -0.34652349489037    0.06411931535687
C         4.25882300685350   -0.81415045841981    0.83971408913244
O         1.90034354585919   -0.43861125695489    0.50106296169093
H         3.21255360372605   -1.10699614666947   -4.55599559589772
H         4.25613757559914    0.16303795308094   -3.87110879110143
H         2.57626312148068    0.54084774935224   -4.31706442660506
H         3.35444983975099   -1.63178073597869   -2.30896983925570
H         1.78296365690287   -0.83653106376953   -2.42875682474336
H         4.85661399677595    1.51795213599756   -1.22121638086783
H         1.40058966163179    1.37143530877208   -1.47453309090619
H         3.79183016739786    2.33240955490604   -2.97126362992499
H         2.76775326044242    4.68662928627816   -2.43160932131486
H         2.57314333182483    4.62663433207008    0.11922109967061
H         0.47931859445173    3.50401867679891   -1.79778004664643
H         0.40627084345590    5.10658832687430   -0.94730465068428
H         0.19439239607152    3.60724837407567   -0.06996345722544
H         1.88699357760810    2.16077430582725    0.73099101959344
H         5.86235145629328    3.30329334458983    1.50994302027001
H         0.15516351967940    2.09073376540719   -5.17969419195867
H         5.17500412992553   -0.64798260825058    0.27573236024015
H         4.18446966750407   -1.81374625645007    1.27979539909553
H         4.25288826969742   -0.09115294801711    1.66015893716726
