36
 energy: -50.514436885562 gnorm: 0.310826767474 xtb: 6.4.1 (79825abcba525fcdf90b791dcacef51065a7a4e7)
C         4.03647618859030   -0.25585780979054   -3.71807168961208
C         3.11013199684254   -0.57946519886506   -2.55505558052722
C         3.37495143410597    0.37499849779469   -1.32827492626038
O         4.77821068184247    0.68474572155320   -1.28334472736750
C         2.45020479896323    1.65711010735896   -1.30754312550634
C         2.72127327232673    2.66283994424501   -2.50784052661475
N         2.66675321382324    4.01340494960689   -1.93778103446994
C         2.10703400698756    3.98575936991783   -0.57831817706927
C         0.58383879549023    4.10935654601551   -0.64980117483528
C         2.52318297083302    2.58890816093408   -0.08683107089751
C         3.97220702921925    2.72441919584847    0.35176628267529
C         5.04974189639474    3.12239297981829    0.96868232827465
C         1.64230359014608    2.62502149821923   -3.57779357562331
C         0.61574932974190    2.41646816326994   -4.35415473196219
C         2.96345674454542   -0.44150487215711   -0.06025074707258
C         3.99460043441477   -1.27873779706206    0.64260868899498
O         1.75687014393356   -0.40063237095355    0.23280165489785
H         4.03601419391229   -1.11158935200542   -4.41443674194144
H         5.06882659982320   -0.09352540633786   -3.39231188908975
H         3.69885858546450    0.58598465883494   -4.31707158869115
H         3.29547440106813   -1.63366497031179   -2.29768970499402
H         2.04746815238402   -0.50904850617177   -2.81895749667031
H         4.88345653535321    1.45548968293093   -0.70006622624920
H         1.46311460809190    1.17314845483821   -1.38966584699217
H         3.71393747395151    2.43527549146515   -2.89457204405712
H         2.07867866710386    4.56970493957850   -2.55556613125085
H         2.64116954177549    4.72440383661984    0.03119797488406
H         0.21898694118483    3.22869108938670   -1.18849240483636
H         0.26387495203866    5.02254081210877   -1.16427085304554
H         0.14619030358988    4.10906088798320    0.35519234005834
H         1.93300812859603    2.24399231935304    0.76878603520602
H         6.02004579040230    3.18258244729425    1.40586285169436
H        -0.22570994944330    2.30229727186459   -4.99810585537505
H         4.64905171817455   -0.59064009571614    1.17485869619961
H         4.68497660000793   -1.57820395771288   -0.15243377255211
H         3.64980809234311   -2.00552164031592    1.38341490285107
