36
 energy: -50.518747279314 gnorm: 0.305419215669 xtb: 6.4.1 (79825abcba525fcdf90b791dcacef51065a7a4e7)
C         3.36207655576649   -0.60692064831672   -3.80504443399619
C         3.23169527550595   -0.86774738200948   -2.31158806991785
C         3.41777429277235    0.38977451851750   -1.37877815284906
O         4.76093344396383    0.86615915792117   -1.56872490181822
C         2.35236033334084    1.55596132329858   -1.44433563282596
C         2.76494988048086    2.57025299998297   -2.59614584596238
N         2.87270817269980    3.88550268923291   -1.95546455981902
C         2.14180343270248    3.89253005873276   -0.67956566215673
C         0.72320365549438    4.45721303049658   -0.77557363257426
C         2.32001969735131    2.44511808444105   -0.19051519358536
C         3.55699757854868    2.32803192064101    0.68502928658282
C         4.64214056010716    2.72233660954998    1.29086626585727
C         1.68340567049408    2.65142363874668   -3.66107722251764
C         0.69159544884578    2.96447726783810   -4.44743256872462
C         3.24606033162308   -0.29819151611139    0.01445837260725
C         4.49769096852717   -0.77700144648480    0.69445063747291
O         2.12417529992090   -0.55061379794403    0.48462692608146
H         3.18102605275100   -1.57464250960055   -4.30297624432844
H         4.39453678644619   -0.33163086083200   -4.04265763701100
H         2.58413841359468    0.08752117166281   -4.11171701952281
H         3.94266692549334   -1.62516647814778   -1.94722315507893
H         2.24500672776136   -1.25501518975905   -2.02816869861428
H         4.84371254241816    1.72226766664629   -1.11533478668303
H         1.34976465683686    1.15078751876613   -1.65868618965925
H         3.63853961296403    2.22825658645091   -3.14986825790487
H         2.56147951261704    4.62715529067275   -2.58000272047171
H         2.61531070636424    4.53858007995912    0.06931122191116
H         0.15287629339603    4.07202033169212   -1.62717802567835
H         0.81393201978970    5.53737987654224   -0.93672375554906
H         0.19517939482372    4.18660054346486    0.14611368647184
H         1.44609062675878    2.17714619851116    0.41263733027884
H         5.45378658283890    2.63819072373472    1.97671568956400
H        -0.08795730051059    3.24464348786021   -5.11792953462486
H         4.23972522825169   -1.79243971134902    0.99010890434329
H         4.73223679717084   -0.10918657065947    1.52955739293696
H         5.38544697837878   -0.83522686682525    0.05853442159457
