36
 energy: -50.518263847324 gnorm: 0.306672073833 xtb: 6.4.1 (79825abcba525fcdf90b791dcacef51065a7a4e7)
C         3.29896508268957   -0.61982176421889   -3.61983619557253
C         2.79171515713863   -0.76424301290830   -2.19250238929155
C         3.25495168875582    0.37632743415940   -1.20729578660189
O         4.65386042750663    0.65790928924075   -1.38297904790992
C         2.37279326705172    1.68744531542578   -1.25380160328645
C         2.64142827659884    2.40887758681331   -2.64414515596943
N         2.80818560554876    3.83124080797079   -2.32627575738482
C         2.39956475939094    4.08160867476359   -0.93611962948403
C         0.94166101472354    4.48370689381201   -0.70515767657818
C         2.69143541842964    2.76209876579864   -0.20151908734000
C         4.16424584328544    2.77514465468562    0.17406158710250
C         5.27683118797357    3.06493553933115    0.78906159557046
C         1.56384870836333    2.23387387494191   -3.70178465929747
C         0.56941294295738    1.97422924600077   -4.50411062313396
C         3.03040695333424   -0.16049682170592    0.24366609059715
C         4.22524143864278   -0.84884015726519    0.84097815397592
O         1.87596787407258   -0.15893036011935    0.70265353156284
H         3.19662609482337   -1.62957011309230   -4.05242835651452
H         4.36011264069988   -0.35273123674717   -3.64894186596010
H         2.66990805004884    0.07095747368444   -4.17535087867917
H         3.25712068872523   -1.66079839854313   -1.75488120233851
H         1.70946668603118   -0.85407806398669   -2.03589748718720
H         4.93834183824737    1.43751863067539   -0.87640589910160
H         1.32769642829754    1.33985395560423   -1.20623151748849
H         3.58895461279764    2.04993709260691   -3.04425093333297
H         2.23522847011394    4.33624191760346   -2.99981400909128
H         3.07014960932597    4.88919865558749   -0.61906957064057
H         0.32858978711759    3.57931687342450   -0.77656582595443
H         0.57398451066475    5.18469820845591   -1.46304063517397
H         0.78082103521047    4.95422646437368    0.27172004768089
H         2.03179162690257    2.72116855147096    0.67172125754120
H         6.30049673922479    3.13595333188877    1.07768684489647
H        -0.32007094750980    1.91694877528154   -5.08831873974573
H         4.73361523255544   -0.22800772266595    1.57663988013717
H         4.93007677453964   -1.06358537591864    0.03135886595296
H         3.84782503392283   -1.76654455728434    1.30061482124918
