36
 energy: -50.518021259168 gnorm: 0.305970602074 xtb: 6.4.1 (79825abcba525fcdf90b791dcacef51065a7a4e7)
C         3.26547732884299   -0.89150316989842   -3.63046240774487
C         2.88056232488018   -0.84751683336143   -2.15895046342665
C         3.27983414954954    0.36389754866792   -1.23203177265225
O         4.64286836712224    0.70661084031849   -1.53499037455670
C         2.35681137598015    1.63904711216568   -1.37838372337511
C         2.70762468087894    2.48850153536328   -2.67493365485593
N         2.91774783848319    3.89200688180683   -2.30346749796463
C         2.39880875702186    4.07703755401909   -0.94014251540299
C         0.99169878594800    4.66770881467432   -0.83216693407531
C         2.41665420071787    2.69587752878226   -0.26337714711269
C         3.72893581171321    2.65454996694334    0.50252794322305
C         4.91913202461481    2.90083108824852    0.97457509200033
C         1.59644923378232    2.24363447842726   -3.68277027811169
C         0.49345033311974    2.26799470007952   -4.37764065405950
C         3.16021582481042   -0.21002748051214    0.21717230561659
C         4.43252846881661   -0.68587802005932    0.85983432141410
O         2.05097676572499   -0.23249394812123    0.77617629424854
H         3.02225051310925   -1.85566417576321   -4.10841139888645
H         4.35678542245490   -0.86240517113530   -3.71057844085925
H         2.88403460062317   -0.01595304792332   -4.14949872054470
H         3.41954166287685   -1.72783750971552   -1.77624568691048
H         1.81290777343687   -1.08033699353344   -2.06012886930611
H         4.74495061590950    1.57278057780300   -1.10526260267010
H         1.33535222626037    1.24643343283798   -1.51174705024450
H         3.63040212901770    2.05254990286362   -3.05592846441308
H         2.45471250274347    4.47745368540451   -2.99615075505791
H         3.07493144961862    4.73212551101427   -0.37789325166415
H         0.28715022463577    4.03062469704453   -1.37678782517121
H         0.94860214653099    5.68795521692165   -1.22991229714264
H         0.72655114070391    4.70830462701008    0.23065805729109
H         1.56864388883206    2.59620471823573    0.42240544389992
H         5.91972355602735    2.84121953698380    1.33720752078585
H        -0.24910688527011    2.18063962113401   -5.13707443209850
H         4.82673179518593    0.01463531261554    1.59397313942515
H         5.22998332838015   -0.75853364007701    0.11339031726680
H         4.31144292824887   -1.62051284894672    1.41452918510871
