36
 energy: -50.519900761540 gnorm: 0.307355635370 xtb: 6.4.1 (79825abcba525fcdf90b791dcacef51065a7a4e7)
C         3.30044212098576   -0.22329151475042   -3.80866913650233
C         3.33449575647047   -0.74169694864730   -2.37844610092263
C         3.44851364833510    0.41006252515094   -1.30766550004406
O         4.82929491693127    0.80627587130194   -1.36730326153296
C         2.45360192731628    1.62815654935664   -1.46827039601624
C         2.74649348648965    2.64335685579787   -2.65539605005445
N         2.84033589918923    3.93684886837969   -1.96980281154105
C         2.13796355021427    3.95127267209702   -0.67803884056685
C         0.64819974637829    4.29297226700879   -0.74403069125842
C         2.39448456203975    2.50885465482500   -0.20946646762213
C         3.68200272226850    2.52846160250860    0.59819321071938
C         4.49228971424354    2.49032098621265    1.61899202372808
C         1.68115572786203    2.62292225271692   -3.73939014190025
C         0.85333409000288    2.53382235921032   -4.74279300797495
C         3.15577488404627   -0.30104094503322    0.05341011171298
C         4.36491366437872   -1.00380467548722    0.60325939003760
O         2.01242925596908   -0.33064988396275    0.53847256097414
H         3.29328236250843   -1.06775456994392   -4.51862114740795
H         4.18337116872730    0.40607860842196   -3.95882963536191
H         2.42724555208747    0.41779741933832   -3.89821242660034
H         4.20485316378140   -1.41225984521843   -2.30952913597204
H         2.49183176344039   -1.37326508668299   -2.07039373220801
H         4.88788355254502    1.66056918547990   -0.90677415297129
H         1.46752943101875    1.14163422333941   -1.54743555470506
H         3.72524688229779    2.44307835820812   -3.08974541531229
H         2.41332582372551    4.66761994826301   -2.53601460562285
H         2.57975834073628    4.65554068138758    0.03696485925086
H         0.10636207551062    3.57860969756892   -1.37250091286257
H         0.54798106132350    5.30375055967462   -1.15542450949418
H         0.19321338340921    4.26306432863672    0.25278482750097
H         1.66830164064375    2.17720337173245    0.54021327202084
H         5.36482823866186    2.36874953652746    2.21910546076100
H         0.16493854242231    2.34487584523718   -5.53410365258241
H         5.16595601301320   -0.88890241271032   -0.12489143757434
H         4.17790992267593   -2.05979160938772    0.82306143994599
H         4.72472680127726   -0.49855065323523    1.50389430392557
