36
 energy: -50.521241566242 gnorm: 0.309538157801 xtb: 6.4.1 (79825abcba525fcdf90b791dcacef51065a7a4e7)
C         3.42860369280295   -0.26388359217790   -3.91836189630142
C         3.15905272120538   -0.64939331255859   -2.47123844139639
C         3.39703529240990    0.43917645073622   -1.35566629314048
O         4.75322892709204    0.89930881078599   -1.48261361001684
C         2.35483178101380    1.62778893023681   -1.37587832355520
C         2.76062520608002    2.70167514836161   -2.47487084110203
N         2.91719829764066    3.98528468003336   -1.78219666938482
C         2.04905838630953    3.90196249660511   -0.59831338862033
C         0.56900286175669    4.22690601049991   -0.80892457917254
C         2.24922513153977    2.46405202121449   -0.09010128087799
C         3.50468878101211    2.36622126531364    0.76115761826473
C         4.61372534392898    2.54785165332685    1.42229163351258
C         1.72848561522233    2.66982983232152   -3.59025376922183
C         1.00705067365862    2.67566160852228   -4.67632116429000
C         3.28553304425465   -0.38825844141894   -0.03399701613390
C         4.48035559871624   -1.08043507396634    0.55889271071839
O         2.17463746384876   -0.44286060968320    0.51947484713926
H         3.25202598302723   -1.15640647674265   -4.54240050395022
H         4.50108010948606   -0.04666885722954   -3.94718417999159
H         2.76820520322357    0.52792227395375   -4.26245864251336
H         3.84292201211626   -1.43360531515790   -2.11171028309980
H         2.13689948417664   -0.98512777188850   -2.25596578908671
H         4.81876084821750    1.61764172435631   -0.83066257778382
H         1.35149368859909    1.25676537031923   -1.64226947362664
H         3.74931552579640    2.48255735187292   -2.87637788437975
H         2.59061811946552    4.71017988728262   -2.41846084209841
H         2.41999870209703    4.57036426229122    0.18784735405644
H         0.00185321331700    3.51481480158213   -1.41731930557870
H         0.49286444926491    5.21778943062450   -1.27078430133657
H         0.04106989175645    4.28640970583178    0.14987380454236
H         1.39551497463826    2.07647999808319    0.47586761937806
H         5.60090504352317    2.63607410214872    1.81463363373038
H         0.35906175846713    2.80105272533749   -5.51307034869964
H         5.36748457547540   -0.48652511278782    0.34594170141994
H         4.55601550468073   -2.07348117942317    0.10444056460999
H         4.24821334032471   -1.17717496485499    1.62314913403755
