36
 energy: -50.516695854819 gnorm: 0.306365461859 xtb: 6.4.1 (79825abcba525fcdf90b791dcacef51065a7a4e7)
C         3.63148301295670   -0.38863889952726   -3.80235684857932
C         3.12918929674312   -0.74308111230492   -2.41041090526493
C         3.34314799513040    0.35794051447336   -1.30221683186228
O         4.71038357303193    0.74530603009332   -1.52065086733433
C         2.34740881515491    1.57787503977704   -1.44242946088023
C         2.62224052585117    2.58477756163426   -2.64088651622859
N         2.94924208480475    3.83607428119041   -1.94857691686824
C         2.16948587575348    3.87715591891898   -0.70259068963136
C         0.68368781894466    4.18362899977609   -0.90004477038260
C         2.38975133654247    2.44877246567163   -0.17615297167147
C         3.73911619079895    2.36618015655771    0.51868124074139
C         4.85476634335494    2.40696812152338    1.19226196091497
C         1.44082122346655    2.63199312832544   -3.59609563774430
C         0.55472680414266    2.92397380747725   -4.50693522084014
C         3.15798232644660   -0.13965131203987    0.16815964448880
C         4.37790075054120   -0.82392389577455    0.71752085504877
O         2.12052797481527   -0.03483196669645    0.84351351998544
H         3.80187721001532   -1.36993673749138   -4.27693175730157
H         4.57849386058913    0.12907358057109   -3.61970178306792
H         2.93140303462676    0.26340843993329   -4.31830990652560
H         3.69064363149849   -1.59642805504008   -1.99993046617277
H         2.07887777867536   -1.05870685396363   -2.37749763094627
H         4.81540071155356    1.62613984915122   -1.12260571963816
H         1.32240806848654    1.17237015949184   -1.42663935069526
H         3.50891920572374    2.30027122547729   -3.20620600744822
H         2.73264825973468    4.62290303201454   -2.55763143458336
H         2.57140426940530    4.60782848206381    0.00943849896780
H         0.13617793003280    3.46419165583408   -1.51771749069803
H         0.59979196675599    5.19452454068209   -1.31478939898247
H         0.14396698021259    4.16624047166991    0.05386681317466
H         1.63820892938343    2.13181636845231    0.55465258469053
H         5.84861999634433    2.24329227430723    1.54112347089286
H        -0.16542312034586    2.97558854404794   -5.29082409994562
H         4.56464737418042   -1.75423000664630    0.18391872224442
H         4.15072522031675   -1.17212632342390    1.73020940242010
H         5.25819725198840   -0.17525100275977    0.70366761156095
