36
 energy: -50.519416862430 gnorm: 0.298933041239 xtb: 6.4.1 (79825abcba525fcdf90b791dcacef51065a7a4e7)
C         3.38986279344655   -0.22728850159368   -3.86584276779737
C         3.07071295291573   -0.68051604431972   -2.44874363827439
C         3.42156618507404    0.38741971472059   -1.34306001387268
O         4.78773498852528    0.81952512974053   -1.46123908373382
C         2.51602372764585    1.67851710382931   -1.45466967766617
C         2.93920922058192    2.79301236028622   -2.50562108084266
N         2.85649502564875    4.02543260228906   -1.71425214328728
C         1.92464311407821    3.80364763934169   -0.59861216003624
C         0.43181509261846    3.90074625246293   -0.91884033161078
C         2.42791931624189    2.43209390646329   -0.11748196843408
C         3.77587164416738    2.63664365981526    0.55451915164336
C         4.73245868493046    2.66248136235133    1.44013959252993
C         1.94893187268297    2.59182495799056   -3.64108564965411
C         0.99430407669732    2.82103011519034   -4.49910405149644
C         3.13328492723675   -0.38254889021198   -0.01342352954201
C         4.37038673872211   -0.85248377033546    0.69859330316579
O         1.97876481117976   -0.69059502418233    0.32656523302700
H         3.11024177629037   -1.02275126038413   -4.57735668655147
H         4.46122138936271   -0.01973827038675   -3.95147155730040
H         2.87481131014568    0.72330125318777   -3.97803169657471
H         3.57946673668130   -1.62362681534967   -2.19647826580504
H         1.99526198818166   -0.87268311216502   -2.34708625590106
H         4.86885508356191    1.56800240312608   -0.84598461921320
H         1.52688160105320    1.27069431463551   -1.72035462899205
H         3.96001820252476    2.56208637452024   -2.80786483058476
H         2.59992390408599    4.84664177008369   -2.25899660892174
H         2.13609629673489    4.57427981870288    0.15226729309434
H         0.10854422523756    3.25499261537289   -1.74186824453521
H         0.16360266356657    4.92126561560938   -1.21475203412507
H        -0.19479492732341    3.63942337175104   -0.05824839184792
H         1.73280976556363    1.99774288867367    0.60882087508382
H         5.72780304678025    2.87431128491457    1.75740432936216
H         0.16773884933458    2.90032153419300   -5.16713442429228
H         4.15321623920606   -1.26764335801762    1.68121962176634
H         5.12624499939754   -0.06069609724768    0.71052270918834
H         4.78390177689940   -1.73457176532594    0.20178705771586
