36
 energy: -50.514925352632 gnorm: 0.301264240925 xtb: 6.4.1 (79825abcba525fcdf90b791dcacef51065a7a4e7)
C         2.92800923115585   -0.26233981532905   -3.67051071707612
C         3.03244294165192   -0.76171209938340   -2.23692685477468
C         3.41923973631688    0.35195527721830   -1.18990523967636
O         4.75702852045537    0.79358586712550   -1.47692817060113
C         2.39967118493545    1.55291483427220   -1.32246627533043
C         2.75693614082602    2.43169774643456   -2.59752973997883
N         3.04376008325761    3.77275341464068   -2.07669596072424
C         2.24278697339552    4.03416030638703   -0.87158283744112
C         0.74780841122810    4.28690309825780   -1.07571491586623
C         2.34566505969720    2.63790694375936   -0.23453852382738
C         3.56020255245385    2.53052105913071    0.67307842207804
C         4.73968665898820    2.70319848322972    1.20132993335042
C         1.67080653670913    2.39098595167421   -3.66010699544917
C         0.86999694251345    2.86954905042111   -4.57100006703627
C         3.26722830971903   -0.32294100890809    0.21198578325299
C         4.55287341847006   -0.85947074677727    0.77543954893811
O         2.16697244266423   -0.44939516044184    0.77487817899686
H         2.84732418078480   -1.18816765890634   -4.26509771603543
H         3.79091317983730    0.29138376445722   -4.05392380787733
H         2.02979556179808    0.32055345177674   -3.85741419276263
H         3.81181374156195   -1.53918543232458   -2.23040511133024
H         2.11846204159183   -1.23675090522392   -1.85899270218852
H         4.86207976607853    1.59419706786616   -0.93533543093127
H         1.39767622313118    1.09930127435082   -1.39697063048340
H         3.68411952645832    2.11258414473770   -3.07211014190752
H         2.85328417573300    4.45560524789712   -2.80771721860618
H         2.75736628152747    4.86103210170513   -0.36770039437152
H         0.39660630054305    3.58588438928395   -1.83998359201688
H         0.66855988465009    5.27880975914572   -1.53484699098073
H         0.13664592241129    4.19765156799268   -0.17014171178441
H         1.52206924681879    2.40292744055720    0.44797776383045
H         5.53579993885849    2.56287414300060    1.89613346267003
H         0.18453710934655    2.68555523001465   -5.36601760735961
H         4.30524121495087   -1.51108966137508    1.61158910263171
H         5.25897739455974   -0.15282939168181    1.22317485764652
H         5.06721834658787   -1.32149171599080   -0.07183625296171
