36
 energy: -50.517878100492 gnorm: 0.310597543471 xtb: 6.4.1 (79825abcba525fcdf90b791dcacef51065a7a4e7)
C         3.28423596807580   -0.60009817563098   -3.57561010638745
C         2.86792815104900   -0.86440199351511   -2.13607091646303
C         3.29412898221458    0.35955416858461   -1.23807022524396
O         4.66903725603262    0.65455249549139   -1.53757285565600
C         2.35508320133923    1.62280537515109   -1.38567019965987
C         2.77692468452231    2.52040636076681   -2.62746194055624
N         3.03689311422028    3.88323761131891   -2.15093964318889
C         2.28984675307370    4.07530953399294   -0.89905337211984
C         0.83363436360538    4.51105006076704   -1.07250480107942
C         2.34884130296136    2.67520290339623   -0.26489732958698
C         3.55525455523061    2.50102596258000    0.64319464799825
C         4.78796117607326    2.49021971018789    1.06789163137176
C         1.68952342177678    2.58925638620794   -3.68728435529656
C         0.61100538301316    2.49291758112767   -4.41361932375937
C         3.22929104878247   -0.20364837126491    0.21880653787933
C         4.53286437270780   -0.72288073467878    0.75669316130604
O         2.12556352535372   -0.28241618345720    0.78359205882694
H         2.95888683448326   -1.41002458550819   -4.25041980176898
H         4.35794867653449   -0.42696951657155   -3.69965090080566
H         2.72131339850304    0.30409069070966   -3.79251088462782
H         3.43808457329932   -1.74281493949788   -1.79660292557791
H         1.78296303331830   -1.02207647577401   -2.09309842891743
H         5.00055615925460    1.38840887179432   -0.99269967015389
H         1.39223372673801    1.17250237884564   -1.67800249507693
H         3.67092616011047    2.15170810989568   -3.12901157850527
H         2.90751059333937    4.64159673009517   -2.81810632415335
H         2.87703040968368    4.74442887514320   -0.25881824547033
H         0.36615554235006    3.77863010363194   -1.73876400106752
H         0.73489819468288    5.51691595022379   -1.49611593628887
H         0.33663258100026    4.46710813520061   -0.09648912991549
H         1.46576795224167    2.49800832909134    0.35810945725718
H         5.63599139319953    2.42513507211194    1.71042409279745
H        -0.25528508085294    2.53525386427100   -5.03290137099714
H         5.04071338356599   -1.34415255981283    0.02103991438669
H         4.32753626708148   -1.31205751892247    1.65619459731381
H         5.24095202675215    0.04469279716307    1.08124379400639
