36
 energy: -50.518716137330 gnorm: 0.300149724079 xtb: 6.4.1 (79825abcba525fcdf90b791dcacef51065a7a4e7)
C         3.13771598857303   -0.49372872894991   -3.80021735875117
C         2.96614561421805   -0.78510590050773   -2.31660530723169
C         3.44184533563433    0.35630632598114   -1.33833696112363
O         4.79612943995040    0.72372386088603   -1.65141441590370
C         2.56740530934473    1.66953967820063   -1.43917903992797
C         2.93503535583625    2.73350427457796   -2.56101324096218
N         2.73904240032332    4.04536707068536   -1.93446006470060
C         2.04115734762022    3.87436975871560   -0.65153158022347
C         0.52671955452816    3.86167476472717   -0.86792642839862
C         2.50986356937479    2.49929115522102   -0.14615438597244
C         3.82499415951801    2.55579252068429    0.61387235073011
C         4.95565249011277    2.50624737019710    1.26133421977229
C         1.93018163930419    2.59413729205654   -3.69293694672523
C         0.99901968243030    3.04799994104298   -4.48476455224496
C         3.15715397846832   -0.28486540853139    0.05871012745802
C         4.38712984423627   -0.61803769217559    0.85519193185242
O         1.99211112639006   -0.47560901670800    0.44561258751590
H         2.94534113477954   -1.42162956443072   -4.36518897400464
H         4.15887737214123   -0.11436033779795   -3.90758440599370
H         2.46605617164429    0.27487147310666   -4.17386436518801
H         3.65266336367539   -1.63351797274707   -2.17232606509487
H         1.95839283261684   -1.12380719010847   -2.04536197992483
H         4.99473968177761    1.50013458583854   -1.10089001937534
H         1.51780155737622    1.37453525489477   -1.60231830101749
H         3.95289060897549    2.64774198750484   -2.93962199861510
H         2.19321708030980    4.61650298965036   -2.57698497539022
H         2.31454210718566    4.74412532364928   -0.04227598987391
H         0.35314062137842    3.16584465327266   -1.69531241565095
H         0.15942605146598    4.86732119794481   -1.10187545454394
H        -0.09603809027987    3.48936961780883   -0.04627562491760
H         1.79721182234154    2.06587074698914    0.56351324166398
H         5.72953458265815    2.55254159226202    1.99290960658213
H         0.22394347750199    3.17506232297686   -5.20509352573740
H         4.10103610779743   -1.25073764489658    1.69359287516000
H         4.79240565749863    0.32571552264572    1.23397040409383
H         5.08108208017436   -1.12826635067016    0.18140607756972
