36
 energy: -50.518188961265 gnorm: 0.302484337166 xtb: 6.4.1 (79825abcba525fcdf90b791dcacef51065a7a4e7)
C         3.29715949840496   -0.47505907381909   -3.77160674100957
C         2.96606508557569   -0.75799553405429   -2.31360632396674
C         3.40719598550255    0.37251973072469   -1.30689891063274
O         4.77508021178472    0.76071358599676   -1.51972945444099
C         2.41257053105837    1.59718272976995   -1.40847185488212
C         2.82653854335474    2.67592582513561   -2.49963100847596
N         2.92173803709884    3.92888113191195   -1.74265931479235
C         1.99531757562434    3.86689999038440   -0.60244328619811
C         0.50303328479444    3.99892350347017   -0.91255152098081
C         2.26202332042994    2.42939701110333   -0.12454573958551
C         3.62642072875107    2.54958969861673    0.53452558827582
C         4.84447009902760    2.70719276760956    0.97220915957881
C         1.85175608687335    2.67654997519318   -3.66590891285439
C         1.01046906006820    3.21484479252473   -4.50407336507027
C         3.20647257590688   -0.33487804808605    0.07266240375275
C         4.47846066702986   -0.61876883489657    0.82078002889250
O         2.12859650904032   -0.86168213440420    0.39524901672459
H         2.95090415055115   -1.30259462119997   -4.41386301488591
H         4.37781990655236   -0.36397805342509   -3.90596714015425
H         2.81355754834901    0.38116507728563   -4.23474238064116
H         3.39628142918123   -1.71860777400336   -1.99101652512382
H         1.87656342354004   -0.80550317650575   -2.19283242612278
H         5.08251825610360    1.34472962609904   -0.80576596674226
H         1.43376452504903    1.17266463723076   -1.68602050370940
H         3.78892149198549    2.42557227867007   -2.94445820618863
H         2.80814387181988    4.78466562673663   -2.28274174630757
H         2.34011665905050    4.57849989220854    0.15725765934915
H         0.22524321736253    3.27770521579992   -1.68815040059729
H         0.15785153353695    4.94767673632413   -1.33878886482374
H        -0.06802681194400    3.69841589478601   -0.02647376034836
H         1.52140403357832    2.02285949083523    0.57227864478438
H         5.75161342416612    3.00957398550035    1.44326733448028
H         0.57427652731035    3.40228952643708   -5.45820246323286
H         4.65243422556768    0.12758941939016    1.59392784896150
H         5.31895920810724   -0.66966254357429    0.12123462237375
H         4.27050723658400   -1.53819681264703    1.37512462742412
