36
 energy: -50.513684741035 gnorm: 0.307495699419 xtb: 6.4.1 (79825abcba525fcdf90b791dcacef51065a7a4e7)
C         2.57934874832898   -0.73141488332356   -3.52949281420541
C         2.67878947675313   -0.84859518279117   -2.01561630241259
C         3.33150755488487    0.35925349526396   -1.24025719021289
O         4.66447839598413    0.40930938275270   -1.77671010593954
C         2.43246148376875    1.65852605356630   -1.29505973248962
C         2.81933050486264    2.57007558294682   -2.53807795571572
N         3.07607865075057    3.91291256299793   -2.00625531251470
C         2.23085265794722    4.01937248574591   -0.80773604490590
C         0.75368026926835    4.18258924522706   -1.17082248015115
C         2.43174779181310    2.65578765896821   -0.12494002512925
C         3.75624883621864    2.68512931168774    0.62020267025308
C         4.97246002423101    3.00083668038920    0.96835367730708
C         1.76883580201191    2.49877971179898   -3.63433665256227
C         0.97676954413098    2.43042590847181   -4.66777924888456
C         3.32591066872748   -0.08477201956461    0.25864273112720
C         4.64688812402128   -0.66787623576023    0.67485868623486
O         2.34477767648318   -0.04340671160704    1.01960820918613
H         2.29558786425102   -1.65417598671599   -4.06352715405067
H         3.56964497186881   -0.41371529625345   -3.87095876144900
H         1.86459903402684    0.02195903822019   -3.85050036519181
H         3.26652105632319   -1.75843588462093   -1.81892453402947
H         1.68562827824199   -0.99406232080271   -1.57252790301795
H         5.10802968152614    1.18306842316979   -1.38954611311551
H         1.41610380278586    1.23542740355205   -1.35263287795750
H         3.73556845589156    2.19339170925861   -2.99122953130848
H         3.08791714401116    4.64489485897853   -2.71408406081637
H         2.56253304913469    4.84087532952771   -0.16157232493159
H         0.52189604009548    3.50835300383170   -2.00182087125714
H         0.61876947754581    5.22047845431842   -1.49570166527153
H         0.03957988454172    3.84897226015544   -0.40904258974033
H         1.59124404099979    2.45360224119757    0.54739056239552
H         5.90981102192455    3.29427275074139    1.38248844012266
H         0.11883751124335    2.42424191608349   -5.29997870934061
H         5.46159067979527    0.04784880499389    0.77010788561620
H         4.92197819764398   -1.33212579839290   -0.15066522113883
H         4.48358053788103   -1.27841742207632    1.56730502238388
