36
 energy: -50.520866601732 gnorm: 0.311478177504 xtb: 6.4.1 (79825abcba525fcdf90b791dcacef51065a7a4e7)
C         3.08690904377060   -0.55806547656674   -3.67351029734661
C         3.02280115148735   -0.81752272720178   -2.17550699827907
C         3.41648794148581    0.38443004548474   -1.23399687950896
O         4.78361894116666    0.76010847120457   -1.47256997098958
C         2.43284291848742    1.61572100120451   -1.35954112957225
C         2.80739759438210    2.50978912764095   -2.61892010970719
N         2.96149118047818    3.86700869158841   -2.08396562167438
C         2.25432779020759    3.97762076678724   -0.79949140046589
C         0.74223552374787    4.17433728219236   -0.92354508631975
C         2.45328341875478    2.58866226846864   -0.16929796788992
C         3.75008555446506    2.64863178970108    0.62134065034972
C         4.86576934281159    3.03433453441681    1.17499484426144
C         1.76077768370038    2.55619836664405   -3.72020947453907
C         0.81136415579387    2.69759855941567   -4.60262927252040
C         3.12195561000699   -0.33228496068832    0.12374434921533
C         4.35702422684926   -0.95234080256692    0.71396798035946
O         2.00428593394300   -0.30198921437285    0.66531442779824
H         2.90864037870615   -1.52051990707386   -4.18253163614222
H         4.08176439764987   -0.16959937301251   -3.91345933612669
H         2.37744401533523    0.17909861863888   -4.04057124067624
H         3.65319791933714   -1.70580820003485   -2.01589812521271
H         2.00003141411837   -1.04930075289704   -1.85289547228230
H         4.85562230649861    1.64644024321234   -1.07941826870457
H         1.38023550515196    1.28827102837423   -1.36974864872203
H         3.76540164499155    2.20726799242586   -3.04015431357292
H         2.63585869017613    4.54510863077271   -2.77033558366575
H         2.75843716606337    4.76935622886299   -0.23253898259907
H         0.27331992202729    3.41350743980642   -1.55610565288723
H         0.44140957456051    5.12306544174236   -1.38221712553644
H         0.22071273728823    4.07313080930825    0.03526641011188
H         1.69861429709557    2.35400108340362    0.58883298975524
H         5.85033715350200    3.14145694797833    1.56919050977964
H         0.15699674104932    2.90197187731040   -5.41859286980673
H         4.06527552760457   -1.82834023661094    1.29066780379170
H         4.78140339463532   -0.22007943002479    1.40829308564230
H         5.10556766501085   -1.26712349131202   -0.01848334487161
