36
 energy: -50.522017308406 gnorm: 0.301159098671 xtb: 6.4.1 (79825abcba525fcdf90b791dcacef51065a7a4e7)
C         2.74593443537966   -0.82868806913957   -3.52190258799841
C         2.80748726669096   -0.93017920259381   -2.00488163724268
C         3.30891766024767    0.35198718495936   -1.23628683510846
O         4.65558503068897    0.63074999436300   -1.65566361040732
C         2.42551968617041    1.65525632254295   -1.37944380119964
C         2.75662864698014    2.50186112844479   -2.68302029162187
N         2.95087971878125    3.88105715547822   -2.22253039557628
C         2.37483008720047    4.05743753730232   -0.88117067411664
C         0.88338620193498    4.39809461095227   -0.87357979375382
C         2.59210205870009    2.67557355009325   -0.24150073914281
C         3.94771124137279    2.58804752350373    0.44045563402979
C         5.13484458091476    2.85854376189244    0.90692762428079
C         1.59268504566989    2.26293219305708   -3.63094099870441
C         0.93650415459281    2.31949199952462   -4.75622872642198
C         3.15076938417317   -0.08061638294283    0.25761216839362
C         4.39375001358220   -0.54886702946609    0.96044085646401
O         2.04400241161977   -0.04595190673250    0.82087653145068
H         2.64946812631858   -1.77388916553694   -4.08269676181935
H         3.65240548386605   -0.34997283205487   -3.90577833251912
H         1.96646408704155   -0.12748718320169   -3.80865781589819
H         3.53783501725128   -1.71403172081073   -1.75171458285051
H         1.83788204901506   -1.28289632178820   -1.63163436110647
H         4.90537336352088    1.48207396258870   -1.25793248981986
H         1.38683077426859    1.29490668774872   -1.46058292398041
H         3.66409999939039    2.17234835393824   -3.18764506125155
H         2.62187853956297    4.63254307645677   -2.82584366863715
H         2.96561785481036    4.83528987040130   -0.38285158728204
H         0.30510731350079    3.58359464039845   -1.32197703570020
H         0.70806518919782    5.32632617193344   -1.42910668382702
H         0.56558226308257    4.51300864883530    0.16917793176738
H         1.86289164911036    2.42833122556265    0.53726579876398
H         6.18571461482322    2.92259061565281    1.07368907671967
H         0.11119553901637    2.18479649959621   -5.41689854704839
H         4.50026916155411   -1.60437768243039    0.71625663391493
H         4.18056412175340   -0.39291681895289    2.02280758015952
H         5.28956387777379   -0.06485789267666    0.56151348887388
