36
 energy: -50.507869373175 gnorm: 0.298333102244 xtb: 6.4.1 (79825abcba525fcdf90b791dcacef51065a7a4e7)
C         2.89865806496704   -0.44977811949030   -3.89247362853026
C         2.66177420086847   -0.76105384143309   -2.42195153624478
C         3.25120629136838    0.34589609561789   -1.46625666989114
O         4.55694796240748    0.70868646798497   -1.94638207943120
C         2.37250325943527    1.65970888009930   -1.43200385935848
C         2.93923000181860    2.91628167070041   -2.22290846170269
N         2.08488130097525    4.02069254339281   -1.77309626370767
C         1.66584895314705    3.73610609129744   -0.39265736101907
C         0.15767741699312    3.85340148810599   -0.16424953585057
C         2.26572965911183    2.35783909756557   -0.06638130942707
C         3.61527788390137    2.53262643221584    0.61079707736839
C         4.83962422386422    2.88134129651790    0.89261955479643
C         2.96148709675459    2.79076199821034   -3.73755521336325
C         2.64079715078089    2.93782187466850   -4.99277477660232
C         3.34065581964479   -0.25019350008916   -0.02383964389284
C         4.65773599162179   -0.67421422040879    0.56244858595185
O         2.28209219179016   -0.32075831121474    0.62258524156486
H         2.23337224498445   -1.11711553943314   -4.46628240834059
H         3.96832079293065   -0.57522349411973   -4.08818702918868
H         2.66224316420157    0.57634830682328   -4.16202476857178
H         3.12595199777404   -1.70778526321776   -2.10546339320059
H         1.57586628644317   -0.83178516023845   -2.28174363761761
H         5.09418348211230   -0.09545289858248   -1.84600962506667
H         1.36719411092468    1.39881470132389   -1.80159525180222
H         3.94957762734385    3.10287734091251   -1.86081897029240
H         1.27967873038444    4.07706680429780   -2.39392678575627
H         2.09313489274161    4.41567299023868    0.35435128207933
H        -0.33766592805786    2.97466055341931   -0.59007356275733
H        -0.16706349583627    4.76491736403426   -0.67868472430696
H        -0.04503608946208    3.95015702200563    0.90864088503591
H         1.65423510982550    1.78852230272516    0.64164885835004
H         5.65067204881441    3.15461190991346    1.52804368567716
H         2.68422413648974    3.21550930265586   -6.02076580973338
H         5.37905897183800    0.13260111867094    0.67999497409373
H         5.02958533383550   -1.50466016001109   -0.04622156191807
H         4.51925779763701   -1.14447359973008    1.53998132949244
