36
 energy: -50.519671197953 gnorm: 0.311786041375 xtb: 6.4.1 (79825abcba525fcdf90b791dcacef51065a7a4e7)
C         3.02549278295680   -0.75095836451118   -3.63698154528642
C         3.04673418265798   -0.96477109107314   -2.13057035053911
C         3.40577809083441    0.31671518585887   -1.28499277498808
O         4.75786388636967    0.67390793332588   -1.61872308083593
C         2.46366984642434    1.57397680677462   -1.46140585384164
C         2.74121657760373    2.54099533604385   -2.69166088015255
N         3.02969920947975    3.87518857443548   -2.15437859306985
C         2.32306030365741    3.97481429604614   -0.86871717059811
C         0.84406508408099    4.33535970931426   -1.02067068354141
C         2.49201397909242    2.56220127951891   -0.28398480726235
C         3.79142577792746    2.60632684751071    0.50340547129663
C         4.85469533949160    2.61700607193646    1.25798726271295
C         1.61726211088764    2.58828483200446   -3.71386213069397
C         0.54737129319592    2.78642283726533   -4.43227688334037
C         3.22646594983394   -0.12813398528658    0.20290752578500
C         4.42814377750140   -0.64946290189308    0.93939528857522
O         2.08953962099793   -0.15555442265078    0.70295565646123
H         2.84154499409607   -1.72504891354560   -4.12124571211309
H         3.91474145634395   -0.19582506510252   -3.95207271390623
H         2.18072080988338   -0.09764298961935   -3.83952685886187
H         3.81615249339568   -1.72273271372629   -1.91746051038300
H         2.08175613525571   -1.28081641693766   -1.71489030575685
H         4.88534958622046    1.60408905148808   -1.36604297455806
H         1.42400036135915    1.25297060559848   -1.63847204681096
H         3.54088936680159    2.16771876405512   -3.33034476231091
H         2.75010823817330    4.60388131165570   -2.80843941214408
H         2.79002804286319    4.71500683615772   -0.20806409554465
H         0.36491353551539    3.51538181793616   -1.56558059634299
H         0.74881311435838    5.31058146886058   -1.51141603133446
H         0.37927927256347    4.42972268885432   -0.03243081860466
H         1.67507457751329    2.23191786933267    0.36630496850340
H         5.51635268649978    2.67418242622268    2.09176158757016
H        -0.24251158432444    2.93929829131874   -5.13118739333490
H         4.40149024279891   -0.27194978121220    1.96010505617263
H         5.34408826508177   -0.44368260093306    0.37628614555483
H         4.34845497846145   -1.73940270283449    0.97903484325101
