36
 energy: -50.496033804966 gnorm: 0.310840318044 xtb: 6.4.1 (79825abcba525fcdf90b791dcacef51065a7a4e7)
C         0.92299083149414   -0.76738346057560   -2.54384333144990
C         2.22599509200081   -0.82122459644254   -1.75980074910177
C         3.30682938738395    0.32603928110926   -1.71852316908075
O         4.12947163322318    0.39950156557062   -2.89536708674960
C         2.55647383172302    1.71243143390569   -1.59902569485105
C         3.41298084301328    3.02682865285293   -1.85287643094895
N         2.33819173037802    4.02518951334967   -1.84450476210842
C         1.53722965965695    3.65038804253068   -0.66969722175505
C         0.03756292563914    3.86592951425160   -0.88195014497292
C         1.77601524281632    2.16407813153268   -0.35379037342547
C         2.63868565882583    1.97617477569985    0.88350251551123
C         3.12945866702802    2.01282359565018    2.09091655289752
C         4.06220688971475    2.92137278423985   -3.22320121349139
C         4.51689507230908    3.05251089299964   -4.43815236193820
C         4.31955632238179    0.03077756033382   -0.56479201488313
C         5.57264060246493    0.80656483060105   -0.27125915624739
O         4.01809003336840   -0.85997961789490    0.24703999598382
H         0.56907051758302   -1.79854284047804   -2.71311149239705
H         1.13812168982945   -0.29669360337291   -3.50840976092258
H         0.15991224543723   -0.18911771592111   -2.02925120103461
H         2.71067456395357   -1.73037674688219   -2.14768517896875
H         2.00149181898745   -0.93512739131179   -0.69186741223535
H         3.59061157809529    0.69567476207633   -3.64852578848143
H         1.81621505693067    1.64725869607946   -2.41332266071001
H         4.12733991026294    3.30633182585847   -1.07937906181845
H         1.87397908609538    3.93413574545820   -2.74626726658374
H         1.91297045055933    4.29112964447111    0.13694732249673
H        -0.29324619050091    3.07181709524395   -1.55931825779831
H        -0.28185233531890    4.84053274328789   -1.26806392666418
H        -0.41729964856865    3.74160650659658    0.10759120705384
H         0.89139340291088    1.54647074011291   -0.16574986886126
H         3.79779144881703    1.77571540226512    2.88674959658218
H         5.04314039555566    2.81067396509956   -5.33277102803501
H         6.02280800015836    1.15231463885714   -1.20017324057249
H         6.24862440369495    0.17227630849701    0.31107726718820
H         5.44287560211754    1.67442015407203    0.38133454549143
