36
 energy: -50.517862409541 gnorm: 0.301480841067 xtb: 6.4.1 (79825abcba525fcdf90b791dcacef51065a7a4e7)
C         2.90513207783491   -0.53916794189142   -3.66103447833403
C         2.90562060524456   -0.77374552404969   -2.15756686058335
C         3.40106711158806    0.38759173409796   -1.21313603618254
O         4.77872804886567    0.64754498294629   -1.53184156729445
C         2.40585854275443    1.59587557104977   -1.43450990593689
C         2.85565855880118    2.60687228949642   -2.57523337687162
N         3.02130222377295    3.90870919941639   -1.91968101595728
C         2.13609952903307    3.91348123824057   -0.74555046999105
C         0.66522294743174    4.20458209729826   -1.04934662968152
C         2.30833438221298    2.49036211899731   -0.18787675508112
C         3.60903116326832    2.52499391083446    0.59786502148740
C         4.89595420296181    2.67083687655946    0.74822747073011
C         1.83542105332065    2.50647462917415   -3.69748159906740
C         0.92633089688931    2.68128254913093   -4.61565480697316
C         3.27814561479547   -0.10549992934120    0.26525559986068
C         4.52009992643233   -0.70878518754268    0.85840316660959
O         2.17260540608813   -0.15774610930623    0.82957169967430
H         2.98133534792516   -1.43151565317874   -4.30532446590154
H         3.73865463334216    0.09807607842849   -3.97309029714823
H         2.01641237785692   -0.01440708255347   -4.00204562010449
H         3.60012890076664   -1.59412102801145   -1.91972568981884
H         1.92700023291164   -1.12214756458442   -1.80433129969572
H         4.95734992757534    1.53279976603775   -1.17162642762226
H         1.40638839882022    1.15663689114393   -1.58760747490701
H         3.82953812376843    2.37734382677520   -3.00605158665262
H         2.80981852851214    4.66688301494892   -2.56575135187956
H         2.48067581919030    4.67063012983527   -0.03112826076707
H         0.37915704797735    3.54443615698580   -1.87472557479757
H         0.60390611583679    5.27331511320694   -1.28389172967724
H         0.08018135858373    3.87070156935029   -0.18459326091080
H         1.55939304517238    2.12915205293880    0.52484204134534
H         5.76259811364351    2.52924083831565    1.35247753191474
H         0.32135299714078    2.81920770159893   -5.48210743335396
H         4.51279305620771   -1.78009697744002    0.66523832985143
H         4.42247326611483   -0.52208493175937    1.93264885251684
H         5.46447180044705   -0.37882120966264    0.41661600660566
