36
 energy: -50.504821238362 gnorm: 0.304439840948 xtb: 6.4.1 (79825abcba525fcdf90b791dcacef51065a7a4e7)
C         1.45481444102791   -0.98366805024037   -2.96685929891327
C         2.13830363846425   -0.86953027926413   -1.61214277517079
C         3.23358042572249    0.26354774436915   -1.56091764460199
O         4.03520060930770    0.15874102759795   -2.74983278695907
C         2.53894720571959    1.68335391562544   -1.52880156319242
C         3.49394214899102    2.89886193658121   -1.89786715476516
N         2.78958263612302    3.97731302923519   -1.19587924372325
C         1.51685727390964    3.63835987702127   -0.54206731383369
C         0.30335613141985    3.80628995635062   -1.45843197244460
C         1.88079446697745    2.17683227950317   -0.22994613565624
C         2.91380054227726    2.13390732816847    0.88426096948759
C         3.50182671980667    2.30388370146725    2.03551383471459
C         3.54344299508869    3.10528195179575   -3.40297374121316
C         3.40093776147558    3.70935946036045   -4.54963299915019
C         4.07673023523108   -0.06576455606602   -0.28634213905019
C         5.53129814082271    0.30111010183514   -0.37501481089195
O         3.52757062681675   -0.63472283179238    0.67183930499171
H         0.92379391148835   -1.94299842836360   -3.08893875398903
H         2.18136054125471   -0.94082682668218   -3.78448636712068
H         0.67343063972699   -0.23865405406664   -3.09287028313735
H         2.63201746745248   -1.84440590096400   -1.47876233973726
H         1.46664570564826   -0.68015199188108   -0.76546180410423
H         4.08838007418905    1.05754879628763   -3.11678413785235
H         1.77642519842802    1.62257390189584   -2.32263784959015
H         4.42572083032116    2.73184405659991   -1.35877292144917
H         2.78530288137706    4.86129906417462   -1.70135935877869
H         1.40951579259539    4.30659295635386    0.32068914601104
H         0.49748204925688    3.49777079912632   -2.49090851799701
H        -0.01016006675094    4.84373869193345   -1.62081770528261
H        -0.56675908275287    3.23103400678897   -1.12149227853605
H         0.95914596390315    1.62451628637222   -0.01813256615951
H         4.11897981252328    2.42479277258415    2.89617769071289
H         3.56811177532129    3.91711412388453   -5.58145306223384
H         5.70721826546579    1.25509284130425   -0.86902294055583
H         5.99784136111358   -0.53295674564779   -0.90892647292414
H         5.94059248270670    0.31230654900182    0.63900843648004
