36
 energy: -50.514659791559 gnorm: 0.308881375594 xtb: 6.4.1 (79825abcba525fcdf90b791dcacef51065a7a4e7)
C         3.06328548217159   -0.48314848339935   -3.63092694533195
C         2.89654863515375   -0.82735378277099   -2.15811897219501
C         3.38632195681592    0.38306918412575   -1.27430936514384
O         4.75837541474726    0.64362979313740   -1.61588817142565
C         2.48403960863634    1.66636156794428   -1.47037970949048
C         2.85837113052551    2.52708767663471   -2.75284256980274
N         2.98687896737599    3.86404684273180   -2.16293407477646
C         2.31493491430098    4.03471492585032   -0.86618710307868
C         0.88482754432058    4.55757497021080   -1.01424112456104
C         2.45107577419025    2.62412309080449   -0.26816609146751
C         3.62677339289636    2.44528466783421    0.67848772456770
C         4.71582131183204    2.53282421669114    1.39007842887764
C         1.69711647049399    2.36071294445173   -3.71938924854431
C         0.49101522571470    2.35569173841364   -4.21470674591744
C         3.24845769787760   -0.09591646268073    0.20739815112802
C         4.46319061165167   -0.82415327168177    0.70971556815050
O         2.17310839047961   -0.07535053128796    0.82917175234969
H         2.90537673654975   -1.45470299569697   -4.12927183996370
H         4.12217060445440   -0.24034362079688   -3.76519060632682
H         2.34186779463881    0.27001648373623   -3.93716920906709
H         3.53182495126125   -1.68692570583088   -1.89451646644550
H         1.83430361376052   -1.02327864132633   -1.96548940201106
H         4.94706771916733    1.51835470919315   -1.23564049838160
H         1.48045524632337    1.22788113466352   -1.59632975519227
H         3.69966391005301    2.14719128238193   -3.33131838798063
H         2.83105071469006    4.60910710962853   -2.83936775685017
H         2.82036400245190    4.83955331334040   -0.31921091668482
H         0.28165658248453    3.86146565847077   -1.60626593367465
H         0.95247264232384    5.44869393637708   -1.64850648092971
H         0.44393236525386    4.73698363761311   -0.02683430830623
H         1.52475391900094    2.40608463708046    0.27381265374850
H         5.55952162138327    2.62203103878747    2.03540867322635
H        -0.31178626495037    2.03823492286417   -4.83960092883754
H         4.45296432741174   -0.97793662230863    1.78736166214347
H         5.33493912799087   -0.30310100322966    0.30111942424393
H         4.49973244605744   -1.77622083486462    0.17294520478370
