36
 energy: -50.519340607393 gnorm: 0.307018728838 xtb: 6.4.1 (79825abcba525fcdf90b791dcacef51065a7a4e7)
C         3.17581246226387   -0.52737971802178   -3.66343368821052
C         2.93936568816797   -0.85107176316324   -2.19552423723851
C         3.36478054781064    0.33059573421910   -1.24221149781278
O         4.74158578157357    0.62388874748708   -1.53458990143310
C         2.43187614955414    1.59909883693786   -1.38358182168346
C         2.82424099212984    2.53432157561463   -2.60713922880477
N         3.07073718840343    3.86056830339855   -2.03070593689457
C         2.17215319869409    3.96606819872433   -0.87156586281676
C         0.72060824792310    4.30731941745608   -1.21372748643856
C         2.40686648588595    2.59584402304517   -0.21328918217294
C         3.67854136854634    2.63216091259556    0.61853148188618
C         4.88850580141038    2.62245780648328    1.10426989577439
C         1.70279596249755    2.59981037863990   -3.63109119313486
C         0.57982853831847    2.77049476863506   -4.27129100741015
C         3.20466008667057   -0.27088071548722    0.19183119837419
C         4.48654768010336   -0.83945044340647    0.73194260131009
O         2.08709356478330   -0.21359606807348    0.73142829264591
H         2.89672290389453   -1.45520007766964   -4.19112618595578
H         4.20488459135803   -0.23391415796548   -3.89388356448830
H         2.47219682163610    0.18065488377580   -4.09366304516713
H         3.52786013011846   -1.73341824301776   -1.90045620337261
H         1.88665757140091   -1.07830871731789   -1.98570010345039
H         5.01225342912935    1.25495630542425   -0.84623714604302
H         1.38672098776977    1.27030039546280   -1.50545194429439
H         3.73434990314238    2.25478408969766   -3.13656309458214
H         3.00224092322760    4.64057470931162   -2.68174974403612
H         2.64743671200448    4.69654535950726   -0.20604722800278
H         0.16513258580034    3.55845996305723   -1.78777719022727
H         0.75900317096238    5.28639452871478   -1.70454228852116
H         0.17416484773296    4.38995443492711   -0.26709169721900
H         1.65738195167009    2.35181569610528    0.54702457749723
H         5.66184683825032    2.88139879245005    1.79066075956641
H        -0.29475765713847    2.75117803921902   -4.87996795514122
H         5.15672481402256   -1.11059588166913   -0.08194790528623
H         4.46092357125971   -1.68973543529041    1.42096406390466
H         4.87374978912970    0.05322882120771    1.23103039931429
