36
 energy: -50.518722097282 gnorm: 0.305243912892 xtb: 6.4.1 (79825abcba525fcdf90b791dcacef51065a7a4e7)
C         3.24840208893170   -0.60151171583248   -3.69689215429869
C         2.89433820833656   -0.84604635181207   -2.23734312901952
C         3.32726719991279    0.35700837554718   -1.31465527612279
O         4.68012831964286    0.76982734299693   -1.57242627953816
C         2.42851899725779    1.65205700287577   -1.43505903117798
C         2.75722033243147    2.59870930798194   -2.66854568576981
N         2.95376622240454    3.91583455476736   -2.05330842446443
C         2.27677199988824    3.93062164073337   -0.74806925602525
C         0.77457848061146    4.20221997209223   -0.84885964241561
C         2.55418988554801    2.52898802204316   -0.17851211450424
C         3.86306156158276    2.56563903786352    0.59344201140564
C         5.08163467337752    2.76940144927927    1.01010774837484
C         1.58898220798263    2.52934023630525   -3.63850082670305
C         0.56486357379724    2.47928845104306   -4.44393278828367
C         3.13420159017393   -0.21973357209678    0.12547852086102
C         4.36761741308115   -0.68789558076051    0.84501824851060
O         2.01666017047252   -0.29223496062375    0.66329468079436
H         3.28842777230012   -1.56403925290461   -4.23460923379998
H         4.26278088177197   -0.19037503413226   -3.68202859339607
H         2.54385085646570    0.04960238957375   -4.20791392515443
H         3.43411533003556   -1.77309485210934   -1.99006212213224
H         1.84046806884567   -1.14395119928334   -2.17050296745852
H         4.79022374349366    1.65941908899767   -1.19580673928899
H         1.35417235730437    1.40580820526112   -1.41382473132420
H         3.64191236864534    2.30229979422486   -3.23085384811268
H         2.71331752598343    4.72080099051452   -2.62878494900842
H         2.75449143094343    4.76620078521544   -0.22271414730841
H         0.33408723644200    3.73899947093679   -1.73783151554021
H         0.53168391215391    5.27067051588566   -0.86827811683856
H         0.28060903904557    3.72271807514195    0.00414702541474
H         1.76188179695482    2.24597017675239    0.52256042464880
H         6.00282740698669    2.88809594133317    1.53313238116141
H        -0.07161438220407    2.62618483167344   -5.28600109971617
H         4.97602849830628    0.18575025222941    1.07229321515136
H         4.98350244893902   -1.35893764994812    0.23774573233977
H         4.04390568160139   -1.11128697591527    1.79992181029042
