36
 energy: -50.517304253062 gnorm: 0.300546211050 xtb: 6.4.1 (79825abcba525fcdf90b791dcacef51065a7a4e7)
C         3.80184475094286   -0.42305018814019   -3.71673336888194
C         2.91143351465112   -0.56269716448539   -2.49072018198876
C         3.31533439942617    0.42874602527997   -1.33312545311702
O         4.67880108020349    0.79831614782442   -1.60047378856669
C         2.36281822049947    1.69052946505634   -1.32968605802374
C         2.71857676291017    2.69171373933015   -2.51152800451320
N         2.79838674219296    4.00126927962192   -1.85528054708703
C         2.08741489162434    3.93425076788507   -0.56989474066352
C         0.57184703793593    4.06619525693106   -0.73161816899654
C         2.44421107997001    2.53275013561166   -0.04603855497502
C         3.80576921636530    2.53895841410729    0.62962594537445
C         4.61534955116269    2.79156869203259    1.61998834320389
C         1.71630557716055    2.58057085906909   -3.64885164424715
C         0.94237250869753    2.61920431487408   -4.69746016382618
C         3.18289688190896   -0.39901275255433   -0.01359270883909
C         4.39167495928210   -1.17379669904668    0.43002093572808
O         2.05026734116605   -0.35185000069079    0.49466657206778
H         3.52160004100876   -1.23434029625573   -4.40989441622792
H         4.86013625554051   -0.54827136610373   -3.46661863856653
H         3.53396239196058    0.53652440793150   -4.15140670332518
H         2.84561134648352   -1.56928374845770   -2.04983804743962
H         1.87705322791717   -0.35952607072637   -2.79508199436725
H         4.81789152314819    1.60965344859594   -1.08305481957194
H         1.32014067613912    1.34995245130505   -1.43987183454016
H         3.69517049069262    2.44934675730598   -2.92896303345060
H         2.51232868542826    4.80272557448626   -2.41456434089670
H         2.49539279324278    4.74496333860044    0.04549580035681
H         0.13129925268541    3.34780520782846   -1.43069623914562
H         0.36442708167320    5.06984231885840   -1.11973020586606
H         0.05384345346345    3.91091402843210    0.22185353011084
H         1.76006049994830    2.19637789943271    0.74018382391450
H         5.55649604956606    3.16135998136663    1.95723738326274
H         0.50473659787095    2.65225075779758   -5.66861643594220
H         5.04388857376505   -1.44071996429216   -0.39970454136117
H         4.02959435643452   -2.05053890336906    0.97647540844436
H         4.93939225780234   -0.53655369319768    1.12989055271979
