36
 energy: -50.518440753190 gnorm: 0.306390262738 xtb: 6.4.1 (79825abcba525fcdf90b791dcacef51065a7a4e7)
C         3.18368227258157   -0.43097713333022   -3.76141191459864
C         3.23729380237957   -0.80088641423541   -2.28637472718539
C         3.49507669065635    0.42648488253735   -1.33074469948960
O         4.81192209632683    0.94557418294183   -1.58286187027856
C         2.40118030404157    1.56479127061243   -1.41468275607198
C         2.72225094932538    2.58724963407568   -2.58821460522104
N         2.76278122863427    3.88682359577577   -1.90892756240177
C         1.97980239776777    3.89187583790816   -0.66429599921136
C         0.52413177151991    4.35014100891778   -0.77165411117399
C         2.24680527877597    2.45879489211960   -0.17345868076561
C         3.51913288128604    2.54767921420424    0.65339294724341
C         4.50048339813560    2.31106630269612    1.47862951737203
C         1.73038042489319    2.55166658373655   -3.73944527212306
C         1.00283374788591    2.91437785970392   -4.75883781167247
C         3.38544010620670   -0.21388814267559    0.09115303741754
C         4.62846456947077   -0.87684100924391    0.61423177724516
O         2.26023038391029   -0.41644686568465    0.57723384344015
H         3.19623176548056   -1.39696202137733   -4.29425023877531
H         4.06774159456718    0.16115758690409   -4.01838315482040
H         2.27552678410232    0.05124798611881   -4.11382901115480
H         3.97109749435053   -1.60413803630629   -2.11831183998389
H         2.23527327085011   -1.12929685313746   -1.98312792155957
H         4.89540320137573    1.66318055457544   -0.93216320113945
H         1.45387545377252    1.01593531346674   -1.54383662105158
H         3.70106174173510    2.39198809587549   -3.02471366591120
H         2.81726927669091    4.72562699294442   -2.48373159037009
H         2.46553491514351    4.59213856900901    0.02570572602956
H        -0.00760541986982    3.74660106455764   -1.51453489043017
H         0.50849666387080    5.38170898284731   -1.14122747086966
H         0.02414414755508    4.33916365065550    0.20376380987210
H         1.46083656198677    2.05890751916267    0.47592346386088
H         5.47618218149647    2.21843852019146    1.89776099389117
H         0.29607902911059    3.01101207554014   -5.55062147273111
H         4.85114117651328   -0.43456626459954    1.58370750245646
H         5.45700261510617   -0.59597316168766   -0.04381815135719
H         4.40363356719626   -1.93028859137899    0.80288379491647
