36
 energy: -50.513957609367 gnorm: 0.315843606032 xtb: 6.4.1 (79825abcba525fcdf90b791dcacef51065a7a4e7)
C         3.41606672755665   -0.72358302825970   -3.64816395796798
C         2.89480118833586   -0.80753358066771   -2.22104226619295
C         3.42100594692934    0.37355172471098   -1.31867475493498
O         4.78286807652414    0.78539719037741   -1.52558882812690
C         2.44243123158712    1.60788179320382   -1.45364572459706
C         2.77816164912860    2.55345868448278   -2.68606364602236
N         2.98298513121563    3.88453807384182   -2.10447867409387
C         2.23609713418590    3.96074626840229   -0.84014496073999
C         0.79499704293557    4.47429081783692   -0.83664829230280
C         2.49848484879769    2.56424964892273   -0.25117748315193
C         3.87213083300828    2.57798357625279    0.39944503349944
C         4.90693726531891    2.90790334241085    1.12081767924724
C         1.50539895589307    2.41290045422793   -3.50504099027860
C         0.46366659884277    2.40724023633263   -4.28913693512632
C         3.14062051644566   -0.24963381040768    0.08735325363150
C         4.33446570262150   -0.86014715405838    0.76575933210926
O         1.99530133515228   -0.15803512190820    0.55985209142800
H         3.13509117057798   -1.63965461418375   -4.19503373964531
H         4.50751836476664   -0.64232220373631   -3.62949223135699
H         2.97557919888890    0.15110234592669   -4.11973739149371
H         3.21740957296113   -1.81064352796501   -1.90226268161649
H         1.80118701496400   -0.74742812846034   -2.15583061094876
H         4.85998591965381    1.57439150489090   -0.96267003621081
H         1.37867351913622    1.31942621758911   -1.47651444547274
H         3.61740017575416    2.19836522987558   -3.28298608375963
H         2.88736023639351    4.72582876406852   -2.67020441530971
H         2.82296362813303    4.67917050785605   -0.25545642519493
H         0.19552438229079    3.96590043824105   -1.59891367073637
H         0.75459895911935    5.56033142174671   -0.97752131735079
H         0.35021167058529    4.20156261073896    0.12737118231754
H         1.77466222573874    2.21520205349619    0.49286585823190
H         5.79959435496784    2.99908316925804    1.69622081785996
H        -0.38829842110230    2.42725097741635   -4.92907205079701
H         5.21251670551848   -0.65124794627522    0.15710297764816
H         4.20452839647922   -1.94654766778752    0.73051776597836
H         4.40190561491553   -0.45191227000959    1.77802733363648
