36
 energy: -50.517784617940 gnorm: 0.305889204085 xtb: 6.4.1 (79825abcba525fcdf90b791dcacef51065a7a4e7)
C         3.44813108589145   -0.64512029677993   -3.66817215913431
C         2.85347778834853   -0.77310421051662   -2.27337849882364
C         3.31167771405590    0.36925467000178   -1.28788872458480
O         4.70886721502913    0.55917858525704   -1.56876059109020
C         2.41921537228361    1.66972195043226   -1.39601910874172
C         2.84414559288799    2.62331188710371   -2.59426160316798
N         2.90384906511900    3.97482367381526   -2.02697198550465
C         2.07785560423344    3.96466304503075   -0.81049317309985
C         0.59199594933770    4.23693869635231   -1.05256090311603
C         2.46766219213352    2.61486189320564   -0.18437775431376
C         3.86770525478525    2.74726813393258    0.39246678000475
C         4.90794147312647    2.52169325792298    1.14551028427708
C         1.70813497555156    2.47576922849438   -3.59331939728404
C         0.69096644968667    2.80453928538486   -4.33986028448916
C         3.19245882135970   -0.22067965049440    0.15490554918769
C         4.44769286486444   -0.76910353685519    0.77284277773219
O         2.10349080770918   -0.30362114658163    0.74708024765578
H         3.00527904275846   -1.37541988152281   -4.36655998565633
H         4.54267783143788   -0.65875956810581   -3.66832004320423
H         3.11663747861822    0.33103050551931   -4.01273981801273
H         3.17118939723702   -1.65161252595243   -1.69096228614458
H         1.76709447668672   -0.80910555726449   -2.42281873632831
H         4.98282834498618    1.19248858256610   -0.88377847146162
H         1.37104204270133    1.36679728654887   -1.55375115901937
H         3.77455248104845    2.30434045991221   -3.06258771204419
H         2.73337959269805    4.74403292052365   -2.67212086028591
H         2.51722361087341    4.76524653899560   -0.20351031799804
H         0.16716344263301    3.43897855798812   -1.67034219158749
H         0.40444398346336    5.21843236790287   -1.50251184110776
H         0.03148087240784    4.27113542925676   -0.11117804488417
H         1.80577690571999    2.25465711716299    0.61030099260287
H         5.90318008983991    2.50233716350160    1.52677747010887
H        -0.14161784153943    2.84005648284042   -5.00416723995725
H         4.15440688056959   -1.71196704222825    1.23117316553812
H         4.75873562650478   -0.14553936053741    1.61712464108158
H         5.21157916594761   -0.84150359155791   -0.00634033401437
