36
 energy: -50.523135083276 gnorm: 0.299992871663 xtb: 6.4.1 (79825abcba525fcdf90b791dcacef51065a7a4e7)
C         3.10814643450066   -0.46152113533543   -3.70819004644561
C         2.90843772730036   -0.78642178096141   -2.23509881560501
C         3.35168428559703    0.35752634605693   -1.24462608411596
O         4.74718299541543    0.61896969130522   -1.47118583877844
C         2.47960357890628    1.66245606275334   -1.43444185055291
C         2.85062099056714    2.60422716334998   -2.65963480979202
N         2.83799626697157    3.98524343874989   -2.16506350500513
C         2.17970317928405    3.99371435881879   -0.85023744020057
C         0.66664559591988    4.21926812878743   -0.86732468289006
C         2.53557424352356    2.62775817988607   -0.23912997459264
C         3.94597430423173    2.64075777245066    0.32744240810169
C         5.03455560429210    2.69373040515781    1.04314805342710
C         1.80189699279503    2.31912874525429   -3.72232116464021
C         0.79965371030324    2.55853576653116   -4.52121886196389
C         3.18030683062517   -0.15926202071802    0.22079211288128
C         4.30097304652057   -0.93522442587805    0.85341936601767
O         2.13470081748936    0.06559804777667    0.85288981487741
H         2.81672439569553   -1.33298691907860   -4.31878119821836
H         4.17992481758085   -0.33069994013913   -3.88817766250900
H         2.52211302046359    0.38350932531646   -4.06028892992174
H         3.46350231610073   -1.71287646664902   -2.02176532833917
H         1.83680814276215   -0.88540427815080   -2.02139415223984
H         4.97200155024249    1.43100039113226   -0.98600596115738
H         1.43560224864616    1.31103226696994   -1.47771562527667
H         3.84418390288541    2.25863451123537   -2.94270290632900
H         2.32124453044807    4.53917347930814   -2.84556988340180
H         2.66821232874157    4.78542346576330   -0.26975328045546
H         0.15404348030667    3.48879269142725   -1.50177047815946
H         0.35438148455408    5.21862105887358   -1.19096994906614
H         0.20574131208966    4.09688807699753    0.11965992524012
H         1.84908379519392    2.29327211250082    0.54585655466506
H         5.88640716992043    2.69430174003963    1.68391930732715
H         0.06398992193931    2.28118252319974   -5.24068795318586
H         5.08945902043896   -0.27889845409653    1.21756368022706
H         4.72843069545386   -1.68791903656085    0.18325332478222
H         3.89271077792625   -1.41309647031857    1.74832192924554
