36
 energy: -50.517065957550 gnorm: 0.306960770504 xtb: 6.4.1 (79825abcba525fcdf90b791dcacef51065a7a4e7)
C         2.95022702942853   -0.51227604427943   -3.69196109955818
C         2.86590161921339   -0.85661193650999   -2.21217604962309
C         3.33165633928371    0.35166751962111   -1.31259039701308
O         4.70343866032012    0.58865320759770   -1.67196433342963
C         2.45009028148720    1.66098408754325   -1.40162814988929
C         2.81697955967954    2.63841127262433   -2.59984049300069
N         2.85531547374126    3.97814678744496   -2.00351407910279
C         2.16473984483706    3.92529976405617   -0.70640128204797
C         0.64840452494317    4.12325158750432   -0.75170024102860
C         2.48866324012827    2.53379790523685   -0.13655127679347
C         3.86250767883504    2.52718131051432    0.51376343671242
C         4.97096915837200    2.79849821201308    1.14443781499971
C         1.79485737172677    2.49182000844385   -3.71526982635450
C         1.19304286324991    2.70799050402238   -4.85155078598209
C         3.19979898717009   -0.19597066960369    0.14569523257734
C         4.43426478531927   -0.66659156515550    0.86182219487160
O         2.12588018034150   -0.31243649466176    0.75932019380643
H         2.77245988511011   -1.47503802519738   -4.20057606591877
H         3.96300063456890   -0.16655886079088   -3.92215207228919
H         2.18269010070203    0.16751459649218   -4.05287246635624
H         3.49212545442006   -1.71805184179272   -1.93344471381653
H         1.80788751906863   -1.07966038691215   -2.02586252113177
H         4.84832546541328    1.49575198340913   -1.35334797890713
H         1.42191451207890    1.31215450294613   -1.59263225916618
H         3.78535289603242    2.36742919064482   -3.01882839232077
H         2.44261351235150    4.67583631174022   -2.61984693406257
H         2.65583006592813    4.70344033139197   -0.10996687339580
H         0.14026304671757    3.34646042149380   -1.33244500577068
H         0.37047119231914    5.06076633967445   -1.24645327542495
H         0.02699635555917    4.13049092536129    0.15126583090269
H         1.68003006548403    2.22121319477388    0.53259525858798
H         5.89556519708966    2.74140200659908    1.67179101320001
H         0.62117437193719    2.79375414882818   -5.74674506856779
H         4.14616378398778   -1.16763508490612    1.78433409191092
H         5.05966592831173    0.20617927214313    1.07521436750278
H         5.03658443969230   -1.39615800378551    0.31333864293364
