36
 energy: -50.517462880429 gnorm: 0.312013850302 xtb: 6.4.1 (79825abcba525fcdf90b791dcacef51065a7a4e7)
C         3.14335231435406   -0.57922307225795   -3.70159835633217
C         3.09789905460613   -0.86678843828520   -2.20805159315723
C         3.36069915131388    0.38100731164732   -1.28065580874760
O         4.69869227923218    0.85170033189358   -1.51586011670129
C         2.31199830759044    1.56238478605482   -1.34366490334882
C         2.72337970984097    2.40914446689213   -2.62407417204758
N         3.10019087667562    3.70373107728358   -2.04612525445199
C         2.27457750250791    3.99449271746503   -0.86459685927375
C         0.90560071836549    4.57923279649719   -1.21743013548901
C         2.27188902057525    2.60183952440364   -0.21157107700265
C         3.55375664889872    2.49747856392347    0.59856826024848
C         4.56736656998412    2.59464780108922    1.41294100924675
C         1.57299748668964    2.44460060466008   -3.61693315964296
C         0.56878897004325    2.73686843531739   -4.39551493469138
C         3.30310857581933   -0.22757969277570    0.15816181275379
C         4.60673430762319   -0.66079286888649    0.76735306041089
O         2.20287931301776   -0.49922033164880    0.66718876153927
H         2.83214046528330   -1.50889242223434   -4.20762509159492
H         4.05051413567659   -0.07580315361020   -4.05066058895366
H         2.32237124431847    0.10409601961589   -3.90296958312527
H         3.93832751186798   -1.51734129939898   -1.92101996905666
H         2.16846319581738   -1.31926957057578   -1.84026498419845
H         4.79700500315196    1.60854331600535   -0.91348144653009
H         1.29322384479349    1.19766123099029   -1.55434329097507
H         3.58237058732021    1.94594723381137   -3.10813209257713
H         3.06261732659680    4.45009566927210   -2.73785345003112
H         2.86365368353266    4.69442158413289   -0.26003488035367
H         0.34225400252424    3.99552259441593   -1.95282093931034
H         1.07703035446309    5.55659687638177   -1.68254597904435
H         0.30750818540963    4.72385713951339   -0.31028220216179
H         1.45102196169160    2.51039437514082    0.50757352690583
H         5.48524529377758    2.37897227489474    1.91015518086042
H        -0.33214436624833    2.75367463130870   -4.96454784175253
H         4.90046264662226   -1.57630518467822    0.25682797379511
H         4.45364924865727   -1.00811631467486    1.79415544417705
H         5.33923270383045    0.14168754283997    0.64341090553021
