36
 energy: -50.517824450363 gnorm: 0.304714046663 xtb: 6.4.1 (79825abcba525fcdf90b791dcacef51065a7a4e7)
C         3.86698269935449   -0.46469293716169   -3.67699665428907
C         3.02759513765381   -0.75841941778324   -2.44225171906899
C         3.28702385351241    0.38746428520987   -1.39069652330880
O         4.67371218172606    0.70320918892043   -1.60164491431818
C         2.36313708770778    1.66747049208363   -1.47679918914087
C         2.83410136294467    2.83193017603883   -2.45040628024177
N         2.79485230467546    4.07838127311538   -1.67788751009240
C         1.92094801549217    3.86203582623572   -0.51527190118290
C         0.42628874672989    4.00007064144475   -0.81099097462280
C         2.33752407983390    2.42928221328862   -0.14162196688697
C         3.68896480967548    2.43667996541097    0.55404661065429
C         4.92747709179447    2.51344210358652    0.95435248110692
C         1.87177390317741    2.79985774953544   -3.62654511875541
C         0.90464630979390    3.00598678883910   -4.47638029891313
C         3.10026217865961   -0.27962314557790    0.01073323722275
C         4.36099638597592   -0.80181903973096    0.64008876391482
O         1.97744668080192   -0.52819436821778    0.48073237962788
H         3.58984354043268   -1.19375941556072   -4.45728950289206
H         4.91147801417030   -0.58957495469011   -3.37425476634743
H         3.62748054061787    0.54325532888425   -4.00588003673700
H         3.28889609054245   -1.73325273906233   -2.00253821405280
H         1.96656657938627   -0.75935932877002   -2.72167020915440
H         4.85069736772064    1.40834809380341   -0.95605051813799
H         1.36285036315055    1.25510823318495   -1.68820849001306
H         3.86511031393824    2.69386476291157   -2.77396082939277
H         2.65399192539369    4.96022154731932   -2.16725020342063
H         2.19243006091371    4.64486127532255    0.20298164686156
H         0.14732613723453    3.50648621578999   -1.74770386225785
H         0.16902278560629    5.06292081738442   -0.88258106081299
H        -0.24679093074419    3.59604323202323   -0.04595904908697
H         1.64467220413255    1.95775441792740    0.56334024695849
H         5.86937146521284    2.31805893042275    1.41359055473724
H         0.21055906211689    2.91762091516455   -5.28024355530333
H         4.09503682010700   -1.34842469876163    1.54317389936102
H         4.91189529993457    0.08814593998733    0.96081367688430
H         4.92684022865669   -1.36213928639159   -0.10941262704884
