36
 energy: -50.515725844624 gnorm: 0.308763428907 xtb: 6.4.1 (79825abcba525fcdf90b791dcacef51065a7a4e7)
C         2.95415679029326   -0.66626101876439   -3.65089298442822
C         2.98337246717780   -0.91703689182467   -2.15032653144501
C         3.29180829904851    0.34337053604118   -1.25458018452353
O         4.69336565156340    0.57083477770932   -1.48040225113182
C         2.47819609189376    1.68697254312815   -1.43392663080585
C         2.91574963342139    2.59549735547746   -2.66226454919305
N         2.95364038417928    3.94409957224660   -2.08624158093726
C         2.22523441362969    3.99936014788138   -0.81009106509771
C         0.71514494047865    4.15254198844815   -1.00159782807339
C         2.53646679207961    2.61718280530434   -0.21121458851613
C         3.87805106415590    2.65816184247186    0.50213940952410
C         5.02973799964444    2.97924993917105    1.02230240800408
C         1.87539815411944    2.60533234800602   -3.77040599120387
C         0.77210314255221    2.74672025620283   -4.45069592626728
C         3.09571125028304   -0.29311802078118    0.15974623296907
C         4.33173348439463   -0.80300385963590    0.84567125875955
O         1.96137658604729   -0.29456179275593    0.66638642231687
H         2.75733121827223   -1.58843151662428   -4.22366015999597
H         3.96401116497431   -0.38582864100690   -3.96675759742289
H         2.21281876111472    0.10533771002629   -3.84204370375393
H         3.71804255753551   -1.67414102268604   -1.83571668003996
H         1.96344864183187   -1.23122255600636   -1.89557185717489
H         5.09753929275312    1.23121711143433   -0.89229036383097
H         1.42220408302838    1.37848719086048   -1.50483312357126
H         3.86907347498422    2.31412982473121   -3.10806162497573
H         2.89643936614940    4.70773936538258   -2.75746589559732
H         2.69750279641516    4.81813063410944   -0.25422793369776
H         0.30544830396474    3.37267036771363   -1.65184830573523
H         0.42023329135001    5.04569499216585   -1.56397336580527
H         0.20388964173841    4.07049716271965   -0.03545346981564
H         1.77115388707508    2.36687998194870    0.53107818978663
H         5.76868308007019    3.09999498089114    1.78099867310415
H        -0.06441112195652    2.85825330975890   -5.10151544540680
H         5.00083977527001   -1.28214690201373    0.13307479953352
H         4.01587430149117   -1.41896055764047    1.69374087215486
H         4.95092618759539    0.01695631705360    1.22004549928012
