36
 energy: -50.518578760650 gnorm: 0.302351280276 xtb: 6.4.1 (79825abcba525fcdf90b791dcacef51065a7a4e7)
C         3.57739031867261   -0.50697395886183   -3.87403749890300
C         3.12842352312051   -0.78254578580800   -2.44647637878215
C         3.37697406764307    0.34180749899555   -1.36936293305690
O         4.72572842430597    0.81496703850622   -1.52454128897402
C         2.35971234980309    1.54667885270371   -1.48276472984682
C         2.87852703323921    2.64176017610988   -2.51102186122011
N         2.92057721653686    3.91916108156706   -1.79099073030832
C         1.99977366420195    3.81029864381020   -0.64973750546988
C         0.51939074692339    4.06525655580682   -0.93951779016996
C         2.32639489178695    2.37906544578822   -0.19058290472987
C         3.67794280329267    2.50496133213385    0.49342736592335
C         4.80873387303527    2.72300798878651    1.10483320848049
C         1.89156173092715    2.82914222249196   -3.65172027588547
C         0.74417833517399    3.14212124309837   -4.18613614161447
C         3.15582840786496   -0.36346399153731    0.00816298261032
C         4.34225132085370   -0.69237007383608    0.86981785280046
O         2.01993670394710   -0.67293408493665    0.40487418931059
H         3.28939443545628   -1.34649198104531   -4.52937621403090
H         4.65804013893996   -0.33280124959433   -3.88289533248283
H         3.08006435938557    0.40712625981970   -4.18800079071105
H         3.69788783199420   -1.64876080687711   -2.07592529910407
H         2.06281782534206   -1.04392323287549   -2.45132452557815
H         4.83015862800055    1.45500647065846   -0.80012385805231
H         1.36454773781062    1.10633632131232   -1.65899161677062
H         3.88081688464960    2.35563549149280   -2.82768698763977
H         2.74306288067997    4.71152941546428   -2.40548309195782
H         2.33306172875754    4.54385369956924    0.09405171654286
H         0.20742740143954    3.32803684135535   -1.68655375097439
H         0.36610281984813    5.04710587033262   -1.40150929377671
H        -0.05202423411898    4.09055115556020   -0.00442776394087
H         1.63818428783910    1.95970721426522    0.55094170742268
H         5.74639492001862    2.89985658782787    1.57997060774693
H        -0.01481072710228    3.33364766199471   -4.90933392420704
H         5.32343273644832   -0.50053410333877    0.43905460189918
H         4.38192907175022   -1.71546604744229    1.25723499633494
H         4.07479667457212   -0.02204194423759    1.69141299973456
