36
 energy: -50.516791834497 gnorm: 0.308546287841 xtb: 6.4.1 (79825abcba525fcdf90b791dcacef51065a7a4e7)
C         3.26332762713017   -0.41656842246863   -3.76292209771206
C         3.31850117430044   -0.75060400756474   -2.27940671595389
C         3.53593525093078    0.47871236373206   -1.31627392860059
O         4.89755553150867    0.86421486962799   -1.57019640298113
C         2.47546590280161    1.64268057900051   -1.45762137819187
C         2.80308356666841    2.73349132113173   -2.56599093004622
N         2.94922914802501    3.97008836575586   -1.79046832429507
C         2.06520046904785    3.88820846206514   -0.61830020289692
C         0.57622532465003    4.06943446480526   -0.91933157763695
C         2.31691011896786    2.44332946380369   -0.15472737609638
C         3.56452913962821    2.40255023597622    0.71255885686018
C         4.72147236986610    2.38184729618997    1.31347787018540
C         1.75432407148746    2.77345015079502   -3.66549633989797
C         0.72314058375514    2.85734567565211   -4.45901189874719
C         3.22750925545557   -0.18432465891986    0.06544467023082
C         4.31196937130746   -0.96841470049717    0.74909425204610
O         2.03243433764513   -0.22591228404503    0.40229466764924
H         3.50500861757291   -1.34352667276730   -4.31022427626169
H         3.96028824734570    0.33537350139071   -4.14639030444805
H         2.31367106190858   -0.01887947834014   -4.11146360218648
H         4.19228026255540   -1.40287118344204   -2.12780260744141
H         2.36643076000330   -1.22758297722280   -2.01500139433025
H         5.00289146695038    1.76379833668251   -1.21665619151666
H         1.49429234701425    1.19051721929555   -1.67706799033851
H         3.79027619187345    2.67259895387598   -3.02257816518095
H         2.67647378988867    4.73085187406388   -2.40998682788630
H         2.39696991872609    4.64643588937113    0.10102347609927
H         0.36982968086739    3.61708662418944   -1.89486170679254
H         0.26115026921478    5.11298854873828   -1.03195483171077
H        -0.06183627781576    3.58994291911762   -0.16799044118886
H         1.51404583041682    2.05937038251645    0.48350320741479
H         5.62092110365089    2.19384925273907    1.85374440350339
H         0.00567491956173    2.88968564800200   -5.24638659355744
H         5.25568596603541   -0.73424874938715    0.25956355965517
H         4.10525013825993   -1.99940061481822    0.44458324200286
H         4.39319385731845   -0.74735567609045    1.81700148563708
