36
 energy: -50.518832238423 gnorm: 0.308545990005 xtb: 6.4.1 (79825abcba525fcdf90b791dcacef51065a7a4e7)
C         3.24839606656932   -0.77406580368509   -3.65634887687893
C         2.98769435866751   -0.90859514283296   -2.16323861338680
C         3.40491827144585    0.37748314625184   -1.35203708198213
O         4.74069646437700    0.79479349141564   -1.68165397282629
C         2.43098900979447    1.61564445930680   -1.48550886507882
C         2.78087999110794    2.65038194245278   -2.63988277630280
N         2.97091380145338    3.96155299034693   -2.01005445673147
C         2.22696984181408    3.95157260481161   -0.74173395293912
C         0.73245329492805    4.26351237529563   -0.83983392510420
C         2.38266131872466    2.50786627245285   -0.23438295250741
C         3.65316524290411    2.36654815741959    0.58796161637249
C         4.77465067042479    2.69746008348404    1.16486514092937
C         1.69462767865100    2.61467934518422   -3.70251469072405
C         0.75356903067474    2.77598963517613   -4.59045184627285
C         3.23046361515963   -0.16152731426668    0.10498874592024
C         4.39379994920870   -0.75263850478450    0.85028319407375
O         2.09674312978242   -0.18148098658621    0.61261185095046
H         2.92203364977324   -1.69755756337935   -4.16413969586160
H         4.32083450612612   -0.57723036474182   -3.75304549715387
H         2.76435807822358    0.07724721173163   -4.12800409430550
H         3.60908253904393   -1.70706306918482   -1.72935859455055
H         1.93468044429137   -1.05437054034601   -1.89163519225867
H         4.82112465512227    1.69587130992953   -1.32538605696999
H         1.41105072020316    1.22688801342530   -1.64011930234887
H         3.70363845509673    2.38930117858339   -3.15668323991456
H         2.84083566732603    4.82233521694140   -2.53834736942692
H         2.79013138671901    4.54060403949313   -0.00804641409073
H         0.27798575356936    3.45251153309525   -1.41829192027853
H         0.52178809734904    5.23029669631670   -1.31090681277629
H         0.22629966821149    4.28069666977157    0.13230879096925
H         1.53779299852329    2.27190259924584    0.42126374711966
H         5.67232327941886    2.72398910091439    1.73907706596355
H        -0.11172230116459    2.89200604809416   -5.20165792568069
H         4.07004984433637   -1.58030951546575    1.47894969290923
H         4.98722444748007   -0.02676302943037    1.41538840820892
H         5.04420758868060   -1.12105571158981    0.05207956233004
