36
 energy: -50.516433474322 gnorm: 0.297838642083 xtb: 6.4.1 (79825abcba525fcdf90b791dcacef51065a7a4e7)
C         3.46507812506360   -0.43487371788467   -3.68961039303563
C         3.02547950949761   -0.73564985474595   -2.26422323569425
C         3.36630082718015    0.40910598819162   -1.23490503175583
O         4.75888535863083    0.65602067630986   -1.49343945213454
C         2.44879515894814    1.69007828013344   -1.36409354603422
C         2.79011208647310    2.61366150680703   -2.61156349221971
N         2.71281340962299    3.99732100660003   -2.13044249249832
C         2.15195170809071    3.98417213330732   -0.77123302104850
C         0.62629730931865    4.09767613106925   -0.77352033560415
C         2.54411692180551    2.63166718233344   -0.15246842074452
C         3.93885759508140    2.73126323045574    0.44350190864633
C         5.14400636701339    2.79399560594956    0.93719307978428
C         1.74556809174304    2.49270886358838   -3.70915344461602
C         0.65287264303504    2.66455277546570   -4.39946581153238
C         3.06652044125959   -0.28521089556953    0.13328601162312
C         4.18258140194462   -1.08385094660495    0.74550302271020
O         1.93351700515502   -0.14277243699489    0.62258754684891
H         3.32982697121487   -1.32722296060195   -4.32413456592328
H         4.54450011950728   -0.28484712842101   -3.79236646153339
H         2.98287046597710    0.39632856926305   -4.19761019367918
H         3.46291812794506   -1.69915549601930   -1.96052849393491
H         1.93917934194800   -0.81838835386165   -2.13397932431268
H         5.17444899799611    1.20521826065425   -0.80712638586086
H         1.41036891918979    1.32807112509363   -1.44111191518816
H         3.81070437904260    2.43473138373031   -2.94787355658257
H         2.15680138113793    4.62348322142096   -2.70986572371721
H         2.57762046589587    4.84921749324597   -0.24882610102022
H         0.24587189271438    3.22570713163370   -1.31557506592475
H         0.28578009086653    5.04194649272530   -1.21325084693635
H         0.23654429361593    3.98288795441529    0.24454867780505
H         1.84214728356116    2.29739372734400    0.61879923258663
H         5.97008944586192    3.12903998151178    1.52163403016216
H         0.07917865468017    2.51292031975717   -5.28470284555024
H         3.71890168281313   -1.89561453927363    1.30328074408851
H         4.82079697502476   -0.38465187287017    1.29522411927090
H         4.87796504573812   -1.53865231773885    0.03452646632947
