36
 energy: -50.517755095631 gnorm: 0.310997386963 xtb: 6.4.1 (79825abcba525fcdf90b791dcacef51065a7a4e7)
C         3.68123816896370   -0.33168615341112   -3.69285130674085
C         3.05720574991190   -0.71252868227937   -2.35831607283638
C         3.36660941222153    0.39493692750185   -1.27946929573578
O         4.76053550032629    0.72338723522814   -1.40670549894359
C         2.41801080712499    1.64203693548140   -1.48994161605407
C         2.89891048095780    2.71578182965158   -2.55834786624528
N         2.83761526023634    3.98284455048688   -1.82162466472318
C         1.91683669252336    3.89370767418110   -0.67864147288511
C         0.43451421247994    4.11121104637637   -0.98835435899506
C         2.26967788746116    2.47339379885555   -0.20520254925933
C         3.58980298913517    2.55376733920514    0.54393787950981
C         4.80853784242357    2.58400838949388    1.00634543132936
C         1.80765837307550    2.75726416402125   -3.61563376186233
C         0.70877605733908    2.78705876721748   -4.31678622483442
C         3.25349809206534   -0.25266891498003    0.13887602130551
C         4.36846873844212   -1.15541937896142    0.58621227607760
O         2.22472835978026   -0.16007070319444    0.82913676640573
H         3.40768177817063   -1.08741346289248   -4.44865823181319
H         4.76851983922178   -0.25530232598016   -3.59184283527991
H         3.30013107301475    0.62159393213165   -4.04992234991093
H         3.49780097159759   -1.68775118433941   -2.09996924260323
H         1.97863316599326   -0.91136089102397   -2.32662829153184
H         4.89963155880245    1.52661165086303   -0.87678137190035
H         1.49104313438540    1.21417885754777   -1.90584841715709
H         3.88099631715859    2.51287841157910   -2.98386718537522
H         2.75695345108639    4.79935847127244   -2.42474858552374
H         2.34316546371971    4.64944092412644   -0.00818089290867
H         0.12456857581778    3.39827936124973   -1.75941782972904
H         0.21055438398705    5.08371490882636   -1.44116739399827
H        -0.12490709781402    3.99872914136140   -0.05243562728869
H         1.54118076953742    2.01377121048249    0.47110576847925
H         5.76149877351569    2.57022368169155    1.48374951233545
H        -0.09577369628848    2.91526427817460   -5.00382685961500
H         5.28071449287666   -0.74258344686328    0.15907157875794
H         4.18228599036731   -2.14676329477565    0.16081249741210
H         4.36132222523026   -1.21844244690585    1.67793906759252
