36
 energy: -50.496700702684 gnorm: 0.306477748565 xtb: 6.4.1 (79825abcba525fcdf90b791dcacef51065a7a4e7)
C         1.01670841107693   -0.71901252615541   -2.47032603607592
C         2.25880009333602   -0.81332470817137   -1.59639511842310
C         3.31511350762466    0.35046187334380   -1.72258487980764
O         4.08788378943130    0.23160457636965   -2.92914927847835
C         2.60569247016191    1.76248501318984   -1.67453498678891
C         3.42522957500021    3.10960488860994   -1.87280624629443
N         2.36740309752937    4.10645518271893   -1.67466799307838
C         1.50659110284098    3.61236477792134   -0.58974102572619
C         0.05653536676688    3.84715886434066   -1.01719844212411
C         1.88613102022897    2.13822174220929   -0.36886864361566
C         2.59972397361541    2.06474497030206    0.97120145054456
C         3.05955192750573    1.93863804443944    2.18475211608944
C         4.17619960260642    3.23346379665771   -3.18852217920016
C         4.37721778368948    2.97146913068995   -4.44986881855184
C         4.31188218334279   -0.08231907940793   -0.59873265862564
C         5.50216760679017    0.81432261269386   -0.40513004666183
O         4.12410349091971   -1.09440823584389    0.09683631995907
H         0.42736878951878   -1.62125216073331   -2.23401389609830
H         1.29771272203741   -0.79392592085247   -3.52561897755000
H         0.45950175264556    0.19155559437800   -2.26570026107645
H         2.84611355873383   -1.68025313966406   -1.93613643694054
H         1.96752521789485   -0.81759652100641   -0.53856815293379
H         3.46240220498014    0.01408691744413   -3.64104506614669
H         1.88058670368014    1.73363737094358   -2.50441421110950
H         4.11764691998704    3.13602955408381   -1.03221772915925
H         1.93955687625291    4.19107302439713   -2.59485667828542
H         1.72737932672030    4.26780322269018    0.26117575614960
H        -0.17189366642161    3.29624114553623   -1.93545037317442
H         0.02072789112449    4.93064144028681   -1.17765015401044
H        -0.68925297994972    3.60843538385181   -0.25015274722353
H         1.05973456009846    1.43901817690841   -0.20292529509638
H         3.40292543393168    1.94187315872432    3.19387222545984
H         4.82886434893013    3.13807463639135   -5.40066837450322
H         5.82133388866285    1.10972011333388   -1.40310209216302
H         6.22138942296107    0.39225066258416    0.30407161363291
H         5.12872647317036    1.74413266016916    0.03291717521765
