36
 energy: -50.517496943084 gnorm: 0.294406728087 xtb: 6.4.1 (79825abcba525fcdf90b791dcacef51065a7a4e7)
C         2.89126516834152   -0.87061471380229   -3.32153018167171
C         2.64886818185700   -0.94081900577356   -1.82094468604115
C         3.27843568495000    0.32425773840842   -1.12141153239067
O         4.59892579815585    0.47642447852680   -1.66936199170768
C         2.34757038020478    1.57530570061954   -1.38172882152641
C         2.68698062216777    2.39725127868725   -2.69888128929505
N         2.97082911226042    3.74641504571051   -2.19772935101180
C         2.22662875137957    3.96632980305552   -0.94873277704912
C         0.74196925515534    4.27374718676647   -1.15315990577323
C         2.48581841612558    2.61625223619385   -0.25877328522485
C         3.92734029203369    2.61340658775669    0.22331399710962
C         5.20619935006368    2.71067949628053    0.45806363771000
C         1.51358774992099    2.43455451693909   -3.66436719470105
C         0.97705182451575    2.96548679488236   -4.72751580056852
C         3.28725042553087    0.04047760850832    0.41588545707816
C         4.56352469260306   -0.55408556371696    0.94109614887732
O         2.26110596568693    0.16734509779018    1.10460430668056
H         2.61857270103195   -1.80008406119132   -3.84966512610755
H         3.95278942100775   -0.65674123445048   -3.48166458009766
H         2.28419677745674   -0.05313635718883   -3.70190154452592
H         3.22551211691729   -1.81856059323500   -1.49082707401540
H         1.60749765112445   -1.02327200371536   -1.48537636834479
H         4.98317310367729    1.26148067900259   -1.24347759267530
H         1.30306038460304    1.22526857300338   -1.33950402641779
H         3.54815643561519    2.02405564950772   -3.25190055981021
H         3.05484045151061    4.45275828827595   -2.92641383988975
H         2.72075561645699    4.78339091394479   -0.40960743698601
H         0.22266395701710    3.41102844557462   -1.58317751086281
H         0.67366132282073    5.07974554148478   -1.89252591259080
H         0.22189224206062    4.44585838699606   -0.20371486527104
H         1.91416998407862    2.45204501795066    0.66079615961981
H         6.15345070079162    2.72888760700217    0.94655371113373
H         0.08907562155784    3.29329164716735   -5.21721371091562
H         4.59438757072231   -0.47332252062317    2.02626885629961
H         5.45836712776600   -0.23527324660607    0.39703047561115
H         4.36543598078459   -1.61123667984269    0.74340257352706
