36
 energy: -50.523053183228 gnorm: 0.311406406312 xtb: 6.4.1 (79825abcba525fcdf90b791dcacef51065a7a4e7)
C         3.33513038170166   -0.45478518236607   -3.70836490357544
C         3.03742652794519   -0.74137919833431   -2.24389296619334
C         3.45488595720165    0.40657891709850   -1.24687699491620
O         4.83878945029286    0.73950067503747   -1.44954121254628
C         2.51664356426536    1.66274709095933   -1.44970461741712
C         2.81741714843654    2.67438774456403   -2.63789773726490
N         2.92492796434600    3.99422837455143   -2.00668603785586
C         2.16808669162561    3.93061216461715   -0.74758581129057
C         0.64996729466405    4.05167512158614   -0.89307454723437
C         2.57086942507556    2.55209573696166   -0.19677610099510
C         3.94325575697122    2.66271101994053    0.44721266191425
C         5.12924018537082    2.71867201820902    0.98606252072127
C         1.64071322089040    2.53737181661565   -3.59026312531445
C         0.66388001370901    2.58430455666473   -4.45260817560073
C         3.05484978811844   -0.21446095607930    0.13086444003666
C         4.11868141614416   -0.85993296080221    0.97339385540353
O         1.85125760992818   -0.36559199026443    0.39905609795319
H         2.97711470268028   -1.25476136912056   -4.37848716402376
H         4.41862024057422   -0.31662134234976   -3.78033092963971
H         2.79891552828022    0.41818063698649   -4.07153094733032
H         3.54932163707180   -1.67352354845869   -1.95929418435796
H         1.95697635305479   -0.86631214451968   -2.09940642706413
H         4.98151351865285    1.65071131368390   -1.14186969781835
H         1.53969708041426    1.15823292651674   -1.52939828053552
H         3.74121110202392    2.43459142624572   -3.16309437775901
H         2.57388860942174    4.67864732147835   -2.67399544578244
H         2.53277756771960    4.75455704955360   -0.12266842534797
H         0.25914819596926    3.17073644270921   -1.41277083846480
H         0.35549368312532    4.93170941967775   -1.47598649373257
H         0.20547933981074    4.21946661239188    0.09476386319962
H         1.94303423808560    2.22605433663266    0.63921066918763
H         6.14555164041138    2.75972276285514    1.30491209061073
H        -0.19753554629281    2.54922146526721   -5.07910172510446
H         3.66475101266454   -1.60366544874314    1.62599187147551
H         4.56585610855503   -0.04116565543599    1.54614741327662
H         4.86396388989913   -1.37294960632592    0.35918027710657
