36
 energy: -50.519472286873 gnorm: 0.306352746390 xtb: 6.4.1 (79825abcba525fcdf90b791dcacef51065a7a4e7)
C         3.26930086882188   -0.21891746296288   -3.88842374120350
C         3.26845381537689   -0.72508877658398   -2.45342142037261
C         3.49158212234184    0.37008776623812   -1.34125094090671
O         4.84454031138471    0.84216520519541   -1.45849269972464
C         2.50701323335487    1.60189499082175   -1.45381834876272
C         2.85951495546391    2.68313844787177   -2.56392628152531
N         2.95029328656173    3.92487187479684   -1.78815344012854
C         2.01320967200651    3.78868428307236   -0.66320171952002
C         0.54469859174103    3.94680271090891   -1.06192907201616
C         2.39426872357253    2.39316466049397   -0.14046677605364
C         3.69821884814808    2.44275808345155    0.63905625687664
C         4.66569335336675    2.68349840531384    1.47934614716701
C         1.70805392878134    2.72252035767548   -3.55538579138675
C         0.80899189532780    3.06828503083642   -4.43412299204723
C         3.19083962695942   -0.40377671464047   -0.01664583902252
C         4.38122542488912   -0.74228722305146    0.83577422464395
O         2.00949356521139   -0.69197271249150    0.23784590690751
H         3.13508068896647   -1.10012143726144   -4.53855101506776
H         4.18064473659398    0.32865310109366   -4.14887999733046
H         2.33509080128075    0.32744621867557   -3.98953529926896
H         4.10584364718400   -1.42927749296665   -2.33167295180947
H         2.34813474796108   -1.22591064960250   -2.12777214119345
H         5.03877037760445    1.52583023185385   -0.79500678005838
H         1.53171869486417    1.17031970015543   -1.73284058982097
H         3.79861600016323    2.52940417350930   -3.09419421023863
H         2.82606903225579    4.80566130806056   -2.28387320266607
H         2.24527580088031    4.52609341270727    0.11447395092739
H         0.22533948847115    3.41021169774463   -1.96134922295743
H         0.42270493020156    5.02152878565614   -1.23811882285585
H        -0.09081779733526    3.67397672739391   -0.21149791292370
H         1.70998301187591    1.91576329552090    0.56889556076798
H         5.41369976014614    2.55374165087226    2.22760333993955
H        -0.00828970493305    3.17150349625631   -5.11025797851689
H         4.23636506922121   -0.20521239245924    1.77153119372383
H         5.36075709013364   -0.53867768384102    0.39141781927858
H         4.21680060330888   -1.80117493563771    1.05397519434072
