36
 energy: -50.519949936871 gnorm: 0.298204827952 xtb: 6.4.1 (79825abcba525fcdf90b791dcacef51065a7a4e7)
C         2.98948680593156   -0.55956703361683   -3.61306461042472
C         2.87010239444657   -0.82525282541310   -2.11954521251337
C         3.34564224062976    0.37782486325879   -1.21810914479544
O         4.71577324149766    0.72408746404311   -1.48257432421629
C         2.40667696075767    1.63714156922432   -1.39660832209072
C         2.90083619449432    2.61086257135773   -2.55131977045662
N         2.82928982434255    3.94835577327806   -1.95302291278941
C         2.04704298238977    3.92625018065530   -0.70811715913519
C         0.54178974038292    4.16733800621844   -0.83695449959643
C         2.33010868931104    2.52393474168000   -0.14303482490184
C         3.68029426942323    2.60518967234451    0.55036126181313
C         4.96215569419365    2.50293610019133    0.76582686204220
C         2.00899265880146    2.48010948125759   -3.77521685901472
C         1.21610047458382    2.73027439625880   -4.77959939771554
C         3.21690411274667   -0.22541092115366    0.21835318316007
C         4.50698984485648   -0.84978527801127    0.67008665581778
O         2.16377985023643   -0.04010926481280    0.85080402672357
H         2.56409407032058   -1.38976064409598   -4.20214911990184
H         4.01143849722602   -0.48567975093224   -3.99825811478090
H         2.52920686067851    0.39565745239964   -3.85217508893452
H         3.52351541450051   -1.67669077305604   -1.87453295088698
H         1.83528419404407   -1.07030664442844   -1.84943950172189
H         4.96404580413511    1.51790498598426   -0.97903561946112
H         1.39448387760832    1.32262473679028   -1.69968320304953
H         3.91844945237056    2.41206667769659   -2.88549413926099
H         2.48824410855379    4.67169746445278   -2.58343895388467
H         2.44591455448486    4.74426082914964   -0.09642573285668
H         0.11451288938237    3.35441712729426   -1.43316830216219
H         0.42518377627242    5.13222895044430   -1.34326461171400
H         0.01369443429554    4.11848892963716    0.12235638141967
H         1.59049016693222    2.14719844440392    0.57137970155148
H         5.91866034408233    2.88536959328275    1.03983910793371
H         0.46030517867196    2.73238669764963   -5.53095203022778
H         5.12083237381411   -1.05503667455360   -0.20520998580971
H         4.40125494675402   -1.74283478728027    1.29432574759936
H         4.96704785981208   -0.04340678942565    1.24800596490602
