36
 energy: -50.516889925968 gnorm: 0.305715427277 xtb: 6.4.1 (79825abcba525fcdf90b791dcacef51065a7a4e7)
C         2.84581021643084   -0.69055760808567   -3.55659725032387
C         2.87199912046718   -0.91769573755357   -2.05221558772843
C         3.31379811047471    0.36445773937898   -1.24784180819173
O         4.67378738219344    0.68375981901119   -1.58780351839241
C         2.40182521802778    1.64709564744723   -1.39798103315201
C         2.74163552200225    2.41480618128310   -2.74736385501280
N         3.17059370098141    3.74530001932782   -2.30267619836553
C         2.45242106467432    4.04581468032029   -1.05523557187534
C         0.98863155627710    4.49040119935482   -1.06838157863380
C         2.62995748584112    2.71100072246162   -0.31180747873852
C         3.99728029198491    2.68631731965686    0.35168374131931
C         5.01048227550904    2.80743317967628    1.16335027791470
C         1.44558579367469    2.26401409113302   -3.52705751044887
C         0.41875252024784    2.01368445829426   -4.29059749456566
C         3.20759352089090   -0.02567422307885    0.26226037614667
C         4.40597337686616   -0.67051277681149    0.89967440098780
O         2.08069695007771    0.11613651881191    0.76564426207946
H         2.55618354152291   -1.62303382668437   -4.07021720955299
H         3.80988051214436   -0.30758277845324   -3.90605021444251
H         2.01390929329456   -0.01631104180385   -3.74319224437390
H         3.62101797482811   -1.66380238841550   -1.74525991157566
H         1.87872735674585   -1.19744273368916   -1.67937513311720
H         4.80866268028261    1.53615832360766   -1.13996180356794
H         1.33154072861048    1.38920576430286   -1.45537425498116
H         3.61037467804947    1.96385036389413   -3.22554812635379
H         3.00310827175716    4.44238530988696   -3.02585010370916
H         3.00167176021340    4.83802222858352   -0.53261025244965
H         0.49831269941462    3.84621511535862   -1.80559828270408
H         0.94857574436922    5.50159623968177   -1.48890688727302
H         0.48856891674680    4.45362235306288   -0.09363395927371
H         1.81638339357984    2.66483620347951    0.41984813340699
H         5.90454397508213    2.71154117025110    1.73579904828556
H        -0.55262850975775    2.02449077958041   -4.72884843373474
H         4.35936266038349   -0.66267063966365    1.98725931255479
H         5.28198403088070   -0.09249322977246    0.58840203686940
H         4.48651301833323   -1.70694329997899    0.56024030402274
