36
 energy: -50.518810767047 gnorm: 0.306690077462 xtb: 6.4.1 (79825abcba525fcdf90b791dcacef51065a7a4e7)
C         3.51386971758009   -0.34093890889240   -3.87150950169588
C         3.12350497796493   -0.71836313528216   -2.45002854986811
C         3.46086214243210    0.42825101200150   -1.42163796695521
O         4.86500886244277    0.73064056914758   -1.48512895262441
C         2.53428189958701    1.70497127660817   -1.52570872947356
C         2.90392054547501    2.88103176493236   -2.52867107262418
N         2.79185383033394    4.14578657653873   -1.79395861076643
C         2.10680797926902    3.90996162991446   -0.51439310152103
C         0.58336779583488    4.01465611417991   -0.60755317750722
C         2.45247379936193    2.44836894726245   -0.18243709974705
C         3.77104575709276    2.49835400925316    0.57206341661718
C         4.84331725336035    2.55018867385303    1.31206131805096
C         1.93259557979433    2.73214614917364   -3.68831164299925
C         0.84083216342039    2.49480389327840   -4.36044712559383
C         3.02277654983363   -0.30151545833711   -0.11037413295721
C         4.06948117428084   -0.88701070490048    0.79507183468120
O         1.80837604584630   -0.49081489124724    0.07072978043881
H         3.57081809592059   -1.29153448355462   -4.42857853481300
H         4.49731241958097    0.13104953091230   -3.96253693060007
H         2.83175089545990    0.38341464321956   -4.30912932643484
H         3.65072881519179   -1.63911730703804   -2.15647627137785
H         2.03509915409228   -0.83475093585602   -2.37463740410493
H         5.05175906934809    1.61192563384579   -1.11934521580150
H         1.52380485223501    1.38158758150522   -1.82515685622947
H         3.94155660644113    2.80322870269916   -2.85114146268581
H         2.30511117076669    4.84722813591684   -2.34895509038248
H         2.44732112947064    4.59718695529890    0.26930230865834
H         0.29416293938843    3.43804748475660   -1.49229031475668
H         0.20270685756193    5.04149101634329   -0.64840347242114
H         0.12739046060572    3.62606202901770    0.31039429400960
H         1.73806490759484    1.96681346892458    0.49363845966701
H         5.78087957453534    2.78294591707840    1.76266109810942
H         0.05609249449960    2.30626966189047   -5.05643582803852
H         4.76170973255189   -1.44133170982222    0.16370597920411
H         3.69809426657998   -1.49119341433000    1.62899434610593
H         4.71961826269478   -0.10355120398470    1.19432531254465
