36
 energy: -50.518264534651 gnorm: 0.304807537896 xtb: 6.4.1 (79825abcba525fcdf90b791dcacef51065a7a4e7)
C         3.27146426013833   -0.73272878351011   -3.57614937631886
C         2.95383027596680   -0.84151122982088   -2.09199412636245
C         3.31816565809334    0.42610201388241   -1.22797013034548
O         4.69084499974475    0.69806672229630   -1.55794772355057
C         2.39598503309320    1.69186670149245   -1.44434705906982
C         2.86440197390899    2.66580834840437   -2.60955421591947
N         3.00541048272724    3.95402489602936   -1.92210908045893
C         2.09755096158923    3.97789172237893   -0.76564438513696
C         0.61556432040421    4.20558012361932   -1.06959062553355
C         2.36413691128853    2.57746651194457   -0.18799916199742
C         3.73700087744478    2.50202925023383    0.46004045633428
C         4.99629637942963    2.63591012761956    0.77036395692348
C         1.78844384908187    2.64542501385310   -3.68300843968366
C         0.82413796482493    2.81223520134550   -4.54459610974161
C         3.15819017555978   -0.22167545217386    0.18577777551181
C         4.43635019926979   -0.75015409731466    0.77335325696467
O         2.04350126420286   -0.33476902820873    0.72250858741703
H         3.03929203252625   -1.66073911672324   -4.12578002371756
H         4.31985067147124   -0.48427064269390   -3.76947064542520
H         2.63881308571909    0.04004388111097   -4.00517171737352
H         3.52112782678816   -1.63498665844983   -1.58160564586884
H         1.90431376784126   -1.08820549381905   -1.88824373409130
H         4.99062587695242    1.23760609346920   -0.80670511966724
H         1.34167094642922    1.40815722820020   -1.59679640456339
H         3.82498671177888    2.31293882261130   -2.98303664038221
H         2.84971559128207    4.79184726582282   -2.47957885186049
H         2.52008766506624    4.73384886262073   -0.09303907989990
H         0.31678339399029    3.57674071806595   -1.91467507229193
H         0.32401929510901    5.24412682312899   -1.26293917868181
H         0.03185881850532    3.91035701779730   -0.19000011856188
H         1.64014224343741    2.32860697013471    0.59510655398038
H         5.90178239030390    2.52304271987239    1.32135874619469
H        -0.00768173898902    3.01052051098326   -5.18061550905837
H         4.14373529473745   -1.68581862195434    1.24662211960350
H         4.79971674481948    0.04601347045365    1.43098058746766
H         5.15526021637006   -0.85494251444979   -0.04400721698446
