36
 energy: -50.513552521289 gnorm: 0.312491004861 xtb: 6.4.1 (79825abcba525fcdf90b791dcacef51065a7a4e7)
C         3.02125646137361   -0.79448803925692   -3.64241743372819
C         2.85906383215079   -0.88057879374109   -2.13187987806837
C         3.30960074386219    0.36940390443379   -1.28295066511893
O         4.69321771375019    0.60146132215113   -1.59735808504910
C         2.42618924993967    1.66825588518314   -1.46173541154363
C         2.77307772083898    2.69763266812643   -2.62179416117143
N         2.79623323233376    4.01676381808054   -1.98044953790040
C         2.16381832784049    3.93448873046386   -0.65550752800298
C         0.65686938823298    4.12390166132918   -0.83918489667020
C         2.45809612597175    2.50430019459777   -0.17188145686767
C         3.85051564699892    2.63047997071168    0.42448096170242
C         4.99881604282449    2.84242381751382    1.00459812949804
C         1.75786038997975    2.59719776113641   -3.74858250623126
C         1.11277876181929    2.90403951254476   -4.83934492231488
C         3.21156986180269   -0.23835261580297    0.15402981713257
C         4.46826796417633   -0.65968657324143    0.86213662505239
O         2.12280212708700   -0.40207588161415    0.72951309984669
H         2.52393458130713   -1.72588354904744   -3.96237731681713
H         4.08267164322001   -0.81198384111076   -3.90945739122113
H         2.60624740709800    0.14951620321022   -3.98608696048087
H         3.48235798756663   -1.72725937689261   -1.80544068076094
H         1.81592513945658   -1.12244603516107   -1.89267476588721
H         4.91945666793496    1.37440866426971   -1.05265165121563
H         1.38192435095492    1.36601310387663   -1.64468400989746
H         3.75756143253584    2.51692557952667   -3.05175444179349
H         2.43525748009709    4.80682617386919   -2.51191708295288
H         2.52464738603301    4.75155881313406   -0.01942166166506
H         0.38837763442819    3.61543883932002   -1.77098664722109
H         0.42923350654859    5.18947062220152   -0.95625800202838
H         0.04573023330959    3.62120239907990   -0.08066618203220
H         1.77631025521195    2.18968814383236    0.62532692356752
H         5.98248861396817    2.94454937643638    1.40233908127237
H         0.56406097574249    3.15261306758293   -5.71848186304338
H         4.17219148560532   -1.14722557595154    1.78934719472926
H         5.11554545853540    0.18918567802114    1.10470515448695
H         4.91852136039919   -1.45637678951796    0.26343223401071
