36
 energy: -50.517432337940 gnorm: 0.319445679570 xtb: 6.4.1 (79825abcba525fcdf90b791dcacef51065a7a4e7)
C         3.10407145158081   -0.66251289335957   -3.62963206842263
C         2.92911571557212   -0.93154109793104   -2.14219935344959
C         3.28737910627586    0.34598001198145   -1.29031427089291
O         4.64316841272661    0.62161506758934   -1.68141433668566
C         2.42686555187568    1.66659728173868   -1.41230915687477
C         2.88231557682362    2.64211477951975   -2.58133240531150
N         2.90302297869381    3.97452326193474   -1.96796063687175
C         2.08922992365066    4.01195730758351   -0.74381658090514
C         0.58768816892202    4.22619819753221   -0.94377385086041
C         2.41689391875335    2.61120716994157   -0.19932768224444
C         3.81228584587930    2.57836375249248    0.40250638720388
C         4.88096327535841    2.67755579223691    1.14287075419039
C         1.84601880989850    2.56936862342497   -3.69092798954048
C         0.93724486729599    2.71203594727698   -4.61495220676786
C         3.22620764397728   -0.12472800239801    0.19917656433229
C         4.50603244234897   -0.66919834864645    0.76823560479151
O         2.13847247145924   -0.36758068689783    0.74804472326170
H         2.65598037922774   -1.51478494270396   -4.16819284986673
H         4.17872080737681   -0.64590501081638   -3.83716897738115
H         2.63755673161984    0.23147188456929   -4.03539122955652
H         3.55544923167906   -1.77388230124098   -1.81039552766297
H         1.88436761382275   -1.17733054120563   -1.91428241502406
H         4.94570694509364    1.40815822975182   -1.19648440016019
H         1.40747785850436    1.29247399814726   -1.60254731734983
H         3.85269375092010    2.40134813708790   -3.01391382389729
H         2.69736953491247    4.76315282434520   -2.57847668085485
H         2.47023766741163    4.83054460071136   -0.12159934659791
H         0.10016864930077    3.36086673395974   -1.40464577660765
H         0.34594574033018    5.03521154301879   -1.64235771444693
H         0.04283021240160    4.52994825989542   -0.04243376278656
H         1.83811041945434    2.25282427202517    0.65853318430644
H         5.74983711210342    2.53379105233982    1.74339483189319
H         0.24398747221055    2.91578599843058   -5.39830517213674
H         4.40997238572778   -1.75286172000571    0.80723767765623
H         4.68570937552337   -0.30939452028189    1.78639529100350
H         5.39065760570911   -0.43889076892328    0.16799640108985
