36
 energy: -50.518064783845 gnorm: 0.305756139683 xtb: 6.4.1 (79825abcba525fcdf90b791dcacef51065a7a4e7)
C         2.91217845976130   -0.58463596358681   -3.66709900203980
C         2.82052641137611   -0.84181967759707   -2.17013600699356
C         3.38848010735965    0.32921190496797   -1.28006034776170
O         4.74779401142533    0.67110281269356   -1.60017734299530
C         2.49412226071239    1.62362810844013   -1.43500249004853
C         2.90372911216434    2.58781755144513   -2.63009471634874
N         3.08731093506516    3.88009035435231   -1.96054650539323
C         2.21141657616454    3.94779092564596   -0.78138798042208
C         0.72310835357454    4.15309466625521   -1.07000318110962
C         2.46971826810345    2.54539082874596   -0.20477110090335
C         3.79076137455350    2.54552934178745    0.54705777008364
C         4.93337652222466    2.85665366242873    1.09266035420451
C         1.76886777384466    2.50296637430628   -3.63771338592297
C         0.71178992715980    2.68059898308727   -4.38005959305126
C         3.20300470549440   -0.17645088785449    0.18752097782514
C         4.45622364475968   -0.71145622172224    0.82111331500084
O         2.09554914578593   -0.24610156413944    0.74617332993974
H         2.42838179597168   -1.49457617573377   -4.06099057614652
H         3.94714585721181   -0.41252358428991   -3.97925031713376
H         2.32865302860645    0.28881349955490   -3.94650797333700
H         3.46580033409906   -1.71253245572399   -1.97672715347564
H         1.78691877937513   -1.05635827093056   -1.87099451782579
H         4.91530652468971    1.60943149526278   -1.40830345225516
H         1.48350653136548    1.20698454584419   -1.57774022271100
H         3.86473709554968    2.29383989999299   -3.05053479958751
H         2.91307207501661    4.69435954348183   -2.54669177504838
H         2.50379473815913    4.76488459298769   -0.11110498066908
H         0.21891961376985    3.37213866798503   -1.64860339027585
H         0.65107826602722    5.02206053984873   -1.73383402686924
H         0.21255421340822    4.38265487919800   -0.12756759596036
H         1.69871911504713    2.22435672477422    0.50364354695025
H         5.89169151722077    2.96544934863966    1.54657122170072
H         0.16297488824950    2.61827806590777   -5.29147603932805
H         4.92449869902181    0.10916270511537    1.36183325056926
H         5.15002426967791   -1.18797998996035    0.12114364958717
H         4.08830116356627   -1.51332455002852    1.46727939458290
