36
 energy: -50.518521717822 gnorm: 0.305455701952 xtb: 6.4.1 (79825abcba525fcdf90b791dcacef51065a7a4e7)
C         3.24742296004700   -0.24312328878457   -3.81964211192525
C         3.13694241687853   -0.65522258479140   -2.35902238058213
C         3.44793255745503    0.46484555917673   -1.29372731712709
O         4.84448070844210    0.78619894543252   -1.40984734499797
C         2.48364321289978    1.71403409907593   -1.38896593674625
C         2.82779099320490    2.75777882110291   -2.53693968915873
N         2.85487492929897    4.05309518713046   -1.84890766428570
C         2.06673216111066    3.95028398570569   -0.61179410387053
C         0.56767046977331    4.08005996277580   -0.88834785287625
C         2.38157107268274    2.53651402822432   -0.09404532257907
C         3.62993219439731    2.52625945199336    0.77307112825034
C         4.81285495350186    2.21947596649546    1.22763417319186
C         1.80876247712883    2.71674934199194   -3.66401680669514
C         0.89418828412416    2.71700433228759   -4.59331696218199
C         3.16495958757064   -0.39993715616534   -0.02251997139309
C         4.37826670679499   -0.81962513087366    0.75848932494041
O         2.01491908702245   -0.76940577430777    0.26782686989421
H         2.81756823450401   -1.08047031754234   -4.39520778380180
H         4.30919971829392   -0.20002471907286   -4.08230398576385
H         2.67972464283642    0.61847162604250   -4.16148723889252
H         3.88785942117983   -1.43336619262656   -2.15276441151510
H         2.12681685543822   -1.05305935350266   -2.20018459615380
H         4.94368056425614    1.53422261671172   -0.79669423665750
H         1.50734365042467    1.22087185194461   -1.52658946531120
H         3.79001038461396    2.57342069033088   -3.01325365406033
H         2.64378072427812    4.86194778617850   -2.43041989969213
H         2.38405270879119    4.81733884113583   -0.02024537139688
H         0.25443425701551    3.28172683623463   -1.56910041974257
H         0.31102909119101    5.06674402660420   -1.29028214673286
H         0.03837552816858    4.02026635346286    0.06968129330047
H         1.59055113457186    2.17922121790120    0.57377443483354
H         5.77397883633131    2.36903439521585    1.66365296461035
H         0.23310694210375    2.90319611657604   -5.40821932184611
H         5.31057049624221   -0.62067669912916    0.23284289996610
H         4.31846813600844   -1.89615928684849    0.94793612529825
H         4.28095419530145   -0.28124152826483    1.70535982604764
