36
 energy: -50.517582078735 gnorm: 0.306338724491 xtb: 6.4.1 (79825abcba525fcdf90b791dcacef51065a7a4e7)
C         3.05581995095534   -0.39366780691476   -3.76296220105987
C         3.09434882936808   -0.75836737807148   -2.28615770189927
C         3.48317476320305    0.41234995219854   -1.30414120116603
O         4.84551198830619    0.84725369907345   -1.45244698971514
C         2.43826402644513    1.58831010390845   -1.46122596600692
C         2.90607123603072    2.61856783512616   -2.57720533183937
N         2.99264633855023    3.92325083770716   -1.91216914717769
C         2.10212109983259    3.90629683349548   -0.74218346954975
C         0.69018881561056    4.41250743593424   -1.04336076639632
C         2.28118350811428    2.47293971218587   -0.21364129310343
C         3.50040744474208    2.43929401333928    0.69342129061877
C         4.47523153117764    2.70219117622952    1.51843825502289
C         1.82481952752700    2.58088503311679   -3.64485703685096
C         0.68288081391031    2.59268278734990   -4.27404828694641
C         3.33637882625784   -0.35972580956916    0.04724361907142
C         4.61208392951114   -0.90463981504601    0.62506097554491
O         2.22704367362610   -0.56275034967826    0.56835594232268
H         2.65003989459130   -1.22119637206070   -4.36937789347103
H         4.04560366356420   -0.21094354050706   -4.19326288038661
H         2.38619292740659    0.44001098394375   -3.95806369241254
H         3.89590657982087   -1.51266779218879   -2.26465827923992
H         2.14465893057482   -1.16607280706022   -1.91775226809501
H         4.86673700165984    1.77108359655387   -1.15008202070165
H         1.46608507735044    1.17054610344409   -1.77050157134184
H         3.82762221733283    2.25877895947308   -3.03330273515692
H         2.68538848548444    4.64087087399874   -2.56606047917387
H         2.53854451773338    4.61947675506259   -0.03273625154122
H         0.28132106060283    3.99870125198803   -1.97097510328424
H         0.73784324301614    5.49960319031976   -1.17341186816452
H        -0.01595043613706    4.35334682260866   -0.20705004259767
H         1.43934279415742    2.18243513306836    0.42374808009657
H         5.32326603722117    2.55413495040622    2.14705264210120
H        -0.04916160092483    2.77546140523248   -5.02668875685676
H         4.46786429389516   -1.98335946965360    0.65035140724162
H         4.86936363184281   -0.44557348241793    1.58498649497714
H         5.40388339052281   -0.69219474144326   -0.09868696103686
