36
 energy: -50.514706422495 gnorm: 0.306166885115 xtb: 6.4.1 (79825abcba525fcdf90b791dcacef51065a7a4e7)
C         3.36704339538135   -0.41176062257961   -3.71171535596565
C         3.02523748035774   -0.77063154800504   -2.27302770072632
C         3.46183798108370    0.39565411919596   -1.30592954163705
O         4.77780057337202    0.84516247741118   -1.67100939475921
C         2.46225380082230    1.61796774906590   -1.38452496466675
C         2.68790674921403    2.48610414616671   -2.69643367660485
N         3.02527724094958    3.80325450172467   -2.14574119679400
C         2.27025670717583    3.97335413468477   -0.89546153315017
C         0.80208886774301    4.39066650047761   -0.99959274937768
C         2.46374631640571    2.61003592954176   -0.20999959509098
C         3.66873734975968    2.63654449999153    0.71611889655141
C         4.80419193036501    2.67603537824082    1.35583231274703
C         1.46822072846815    2.32944558349261   -3.58987058959635
C         0.39431523856846    2.61866494462219   -4.27040273322966
C         3.25096966681472   -0.27970879527080    0.08809716941989
C         4.35003364913031   -0.88990455119746    0.91147265440690
O         2.06553911954074   -0.26882606986856    0.45963115215946
H         3.22061391353139   -1.34196628407007   -4.28658648119476
H         4.44155817948183   -0.22665379272045   -3.80852482945223
H         2.80233020401373    0.43550900615646   -4.09213415107509
H         3.50093300942327   -1.72403595392257   -1.99615232497482
H         1.94879736704235   -0.92669678004945   -2.12888361766921
H         5.12942490116924    1.44846457360466   -0.99445661244636
H         1.46765502237920    1.15425920803784   -1.48968075753931
H         3.58666481922155    2.12873643602177   -3.19768345672304
H         2.90775367504096    4.49840407811948   -2.88053031920071
H         2.85359673564122    4.67646285919024   -0.28903025539021
H         0.19823737366645    3.69166458837588   -1.58750129711465
H         0.72857369318750    5.34320581597571   -1.53645938604218
H         0.37752207071451    4.43110955244684    0.01018725052961
H         1.66216409526062    2.39957616444582    0.50591000149435
H         5.63901231219049    2.58118088266679    2.01181765179863
H        -0.54973745716976    2.63405785261282   -4.76465910711020
H         4.63511995278171   -1.84234963834787    0.46802123920562
H         4.01302314048842   -1.05975292524763    1.93907529875909
H         5.22229542479822   -0.23456006829889    0.83681761307678
