36
 energy: -50.515536521534 gnorm: 0.301999111370 xtb: 6.4.1 (79825abcba525fcdf90b791dcacef51065a7a4e7)
C         3.35375846943582   -0.55328016533360   -3.83380967765372
C         3.01151567966526   -0.77469379462656   -2.36776477755641
C         3.45158568189579    0.35760196571753   -1.36259525409123
O         4.77161908778423    0.78382422979854   -1.74067587740174
C         2.42245611250625    1.55706274600289   -1.40237578271944
C         2.80703721628354    2.65031820367078   -2.48983813573540
N         2.89336970774895    3.88541218560608   -1.70303722718576
C         1.94251197831469    3.76320703757262   -0.58808224709235
C         0.48574242905957    4.00737658476373   -0.98647079537980
C         2.21176540442013    2.33248206733609   -0.09163338247827
C         3.51805777652950    2.36027874234690    0.68504490201542
C         4.59446084578139    2.74767598099600    1.31060841952751
C         1.77018157375630    2.79769885551541   -3.59147997115716
C         1.17338932140175    3.55561062190522   -4.46866502065875
C         3.32006082461106   -0.36879559169331    0.01542460112044
C         4.55049056106946   -0.78542769546306    0.77086354703879
O         2.15882985622911   -0.62527171898133    0.37481870384395
H         3.26876042974270   -1.50982842033815   -4.37694109780016
H         4.34750023897030   -0.09807563085299   -3.89284150450567
H         2.70460415267307    0.14097733539803   -4.36115250864757
H         3.52036845438634   -1.63706689035327   -1.91026322978395
H         1.92909172790203   -0.92513559855795   -2.26987282880202
H         5.00014526631708    1.55532743312972   -1.19487798006843
H         1.48119727185062    1.07276593491639   -1.71026936219297
H         3.74273254241852    2.44273098046603   -3.00763238149797
H         2.91621212003658    4.75168400971531   -2.23783730404081
H         2.27028243504392    4.52945436725692    0.12454522331276
H         0.02480597880165    3.08340139768493   -1.35072922322547
H         0.54355753571949    4.71830120236472   -1.81845938743218
H        -0.07682669245404    4.45206957929054   -0.15742774691381
H         1.47908572930248    1.89397836608962    0.59411358479477
H         5.47069584492226    2.87109021721263    1.90493187316923
H         0.40818861319398    3.81876991931122   -5.16218997597116
H         4.23064176280135   -1.50473842339219    1.52277033399119
H         4.86107153783705    0.05356422633824    1.40175478481825
H         5.36800932744524   -1.05392515083855    0.09598389627325
