36
 energy: -50.509003349991 gnorm: 0.299078441162 xtb: 6.4.1 (79825abcba525fcdf90b791dcacef51065a7a4e7)
C         3.43641819396121   -0.24372840888415   -3.87223840697466
C         3.35336997783611   -0.64281600912258   -2.40619821077284
C         3.51417703433446    0.53299926037574   -1.36806497565107
O         4.81934722934836    1.13271509045806   -1.43107508328111
C         2.38907725018444    1.63178672124348   -1.52996907041713
C         2.73826901473435    2.72304362398639   -2.63129006607631
N         2.90434909384757    3.95336757158898   -1.84982575610156
C         2.13273979694329    3.87266596894820   -0.60070788644811
C         0.64626636029699    4.23447511249292   -0.60146696244477
C         2.32068831777769    2.39962544034935   -0.19975931460600
C         3.46217444503600    2.13183306436566    0.76755563474123
C         4.36824438154002    2.39259431650066    1.66816139520477
C         1.76252488270018    2.82822731283660   -3.79200756585924
C         0.76795806112220    2.53706379420968   -4.58327581016809
C         3.23528343399723   -0.20860688546426   -0.02042643271804
C         4.38582475703883   -0.89755975457561    0.65767848504640
O         2.05576269651101   -0.34955820596915    0.34325619627382
H         3.32674155196171   -1.14348611573748   -4.50121223404795
H         4.42127373716204    0.16804916000218   -4.11455518708151
H         2.60622833523679    0.39477109500916   -4.16307934298930
H         4.12012672102424   -1.40671946550276   -2.20504710207010
H         2.36393387744619   -1.10036320100564   -2.28160305159468
H         5.36518571546377    0.38018874090517   -1.71585780224009
H         1.42035432115239    1.12564493055186   -1.67386633775059
H         3.67989999707148    2.61940146406807   -3.16917338047728
H         2.55302457785283    4.75509488263459   -2.37017580511251
H         2.67225900978583    4.52948445934483    0.09205097337342
H         0.05270715827735    3.56640607084188   -1.23411851427807
H         0.51944047595867    5.23324079494473   -1.03429916696398
H         0.22590257168081    4.22678410888658    0.41084888897003
H         1.43079347943887    2.03189267636849    0.32198171922561
H         4.99378897580962    2.33062399506140    2.52902889390327
H         0.12725539688656    2.57907623813237   -5.43386197424992
H         5.18115055918559   -0.26663648565771    1.05070226479443
H         4.93622328076346   -1.52966473109844   -0.04652071158194
H         3.97699841768043   -1.50723587627892    1.46826248356506
