36
 energy: -50.517987254452 gnorm: 0.311718216193 xtb: 6.4.1 (79825abcba525fcdf90b791dcacef51065a7a4e7)
C         2.72882312432023   -0.64813223904337   -3.51347143978669
C         2.89712900739387   -0.90201245520110   -2.02261271361459
C         3.35448610568180    0.37140859056523   -1.21307927066799
O         4.62129773047655    0.81714347892675   -1.72650629980395
C         2.37339164078806    1.60812387226589   -1.29901714677445
C         2.69743414114988    2.41944536029625   -2.62658575125512
N         3.07221681068233    3.74645582876428   -2.12603877964179
C         2.22247380848259    4.03991530583903   -0.96242050060119
C         0.71842156743298    4.25524049332148   -1.14122669252572
C         2.41644043738044    2.70525273856493   -0.22283574455185
C         3.76339426152038    2.60157742479523    0.47384812554643
C         4.99420550219842    2.61224637466178    0.90401062563448
C         1.55242687372743    2.47930838548526   -3.62447359344334
C         0.81152053752599    2.69257621277768   -4.67595798918751
C         3.36378615606765   -0.11491364540461    0.27261758188132
C         4.56040570891309   -0.82712083481192    0.83749830567085
O         2.40555675382722    0.11508210667709    1.02912261289782
H         2.52569302532233   -1.56411636308122   -4.09391283892392
H         3.68337000224262   -0.26336741904225   -3.88631848883707
H         1.94367789829817    0.06828366108389   -3.74102472993070
H         3.68041189108681   -1.66089359864432   -1.87263437982014
H         1.98625754601191   -1.27666143906587   -1.53907522465366
H         4.93548488880831    1.38155055318870   -0.99982353309852
H         1.37119523462780    1.14937326411470   -1.32047207430299
H         3.58808001691702    2.03248574819643   -3.12028734096909
H         3.09716744704113    4.51543677886967   -2.79312613259204
H         2.69091775034237    4.81289224995807   -0.34155555750074
H         0.28215432260631    3.30320805131833   -1.46088570481710
H         0.62037731391248    5.01975092082276   -1.92024694107784
H         0.27121320671910    4.60734858337135   -0.20443811958252
H         1.68156572450140    2.52980753119246    0.56996439234327
H         5.93442167588960    2.69317522400619    1.39967511837046
H         0.10876534710179    2.79974536410120   -5.46994268244217
H         4.95272898633423   -0.28271793800798    1.69469310750727
H         5.35020425477345   -0.96236159155014    0.09162972711053
H         4.25101623895667   -1.79204122576345    1.24871255896047
