36
 energy: -50.522064889816 gnorm: 0.302975537882 xtb: 6.4.1 (79825abcba525fcdf90b791dcacef51065a7a4e7)
C         3.66508563079208   -0.21976591370499   -3.91319853856573
C         3.10578864352598   -0.65762815997970   -2.56749971902779
C         3.38777324234275    0.36085762920514   -1.39733201705957
O         4.77563476460017    0.73030035144530   -1.46404835723659
C         2.48138496954203    1.65616099732583   -1.40410254482494
C         2.85944015722139    2.72361828707540   -2.51913336153865
N         2.73482687474346    4.00837822386533   -1.82211862167138
C         1.99657401423706    3.88907393387820   -0.55604661687713
C         0.48915275117450    4.13118975418860   -0.65387698069323
C         2.46258089106954    2.49157710625545   -0.11358416829458
C         3.80220646879904    2.55647591783487    0.60167313634515
C         4.94561314366619    2.66009041168735    1.21968212535555
C         1.88658527035590    2.59659537745328   -3.68009156945638
C         0.79933514234079    2.61804424790038   -4.39944679923340
C         3.04215971511949   -0.37384822098362   -0.06142424542468
C         4.16465199955003   -1.02032654637391    0.70035297414578
O         1.87638593503522   -0.38387640277749    0.36784540752635
H         3.50639974349180   -1.11773814419238   -4.53421837493316
H         4.74293047896272   -0.04510445114125   -3.83598139053909
H         3.24113820961201    0.66750594269193   -4.37634268889127
H         3.67624382043349   -1.57712601066809   -2.36493921137331
H         2.04452074555342   -0.92923262021809   -2.62913285708091
H         4.95736527260098    1.45888369810500   -0.84641004687401
H         1.45467608458624    1.29974018279872   -1.58888118724890
H         3.89175781424321    2.59645122126656   -2.84298190048082
H         2.48446299598565    4.75381482334290   -2.46911319429847
H         2.29537309287184    4.74388960617952    0.06235101118675
H        -0.05324096827094    3.42853202491323   -1.29493698169789
H         0.32411717873563    5.13682651158679   -1.05688986539017
H         0.02210667810662    4.15830786017617    0.33742560910204
H         1.83706825389477    2.05495883981690    0.67219718954367
H         5.78200091854163    2.49127658641794    1.85858477270812
H         0.14780998229420    2.52861327889370   -5.23806403379897
H         4.87887273247116   -1.42207410300357   -0.01627987981224
H         3.81564440317078   -1.77274202818994    1.41481528008230
H         4.68248376027179   -0.27585041945760    1.31149611209692
