36
 energy: -50.514397796166 gnorm: 0.307218891674 xtb: 6.4.1 (79825abcba525fcdf90b791dcacef51065a7a4e7)
C         2.83516845510870   -0.51436059906913   -3.61364597277321
C         2.91231105280266   -0.83009507534295   -2.12710551465654
C         3.30934773090827    0.37179678312340   -1.18692526607785
O         4.68042942873085    0.58001826092163   -1.56623698970625
C         2.43431087617447    1.66631198986852   -1.42762673889786
C         2.85265493612924    2.61973432578344   -2.62831761733099
N         2.98002811890454    3.94303596108266   -2.00814428664682
C         2.18162520917060    4.03915153958052   -0.77708631886139
C         0.68975838245407    4.32292005536736   -0.96233894046995
C         2.43345633309995    2.62536075823671   -0.22598782637603
C         3.72961127438272    2.69479000454235    0.56493790799875
C         4.97444778537284    2.73082463668773    0.95111594330105
C         1.73294017502122    2.56603277003361   -3.65484593227747
C         0.96024312974352    2.51248489254065   -4.70371042372463
C         3.22107014824549   -0.20487022700105    0.26343784422560
C         4.49569142930951   -0.79510304229957    0.79747293203932
O         2.14881141791266   -0.35672017317002    0.87221061970950
H         2.66173450297778   -1.41382030436970   -4.22853935680884
H         3.81335907738604   -0.22470956055846   -4.01046332534873
H         2.12609123145511    0.28026905228391   -3.83103611827891
H         3.72964828456658   -1.54858964083248   -1.96081787951782
H         1.97926756284913   -1.33566886797201   -1.84839031649664
H         5.04787465378774    1.27739381866384   -0.99703747128186
H         1.39527695189186    1.34720719390092   -1.61172100717305
H         3.79728010627743    2.31242071327363   -3.07549846045470
H         2.71720419661339    4.60861992934746   -2.73263123962338
H         2.58891135268831    4.79105871869180   -0.09067539978970
H         0.40202985828917    3.61327759014369   -1.74496058157044
H         0.46305750946897    5.35975807032031   -1.23535003735840
H         0.09631458274965    4.01113014014978   -0.09506749513906
H         1.55577842853500    2.39069082299000    0.38553930510703
H         5.88992938584626    2.67689525559998    1.49446139308816
H         0.31691990314223    2.55039530399567   -5.55250946344343
H         5.36553405587841   -0.14213461904735    0.75185455813047
H         4.76286283345002   -1.62781837199533    0.13899258623260
H         4.43314675629566   -1.20579630656507    1.80906057915520
