36
 energy: -50.519141071481 gnorm: 0.316778041147 xtb: 6.4.1 (79825abcba525fcdf90b791dcacef51065a7a4e7)
C         2.95691552485733   -0.67260288400918   -3.67464398475057
C         2.93022777964256   -0.87140182972490   -2.16626455188520
C         3.40280811410300    0.35794855020379   -1.29938132320814
O         4.78094437882824    0.67899537628390   -1.55387680970431
C         2.44036536291082    1.60758147748955   -1.40670243976497
C         2.82976649818203    2.48584284515429   -2.67268356789248
N         3.07573460344728    3.83787127743252   -2.15937575694693
C         2.29985402070855    3.97961890752431   -0.91836566607000
C         0.82364996635668    4.34986424030717   -1.07408880451844
C         2.48049743125369    2.61011461069215   -0.24178697151821
C         3.73919271369113    2.54539217302856    0.60785925821517
C         4.81099588082122    2.79966717782655    1.30544943739750
C         1.66172342261337    2.53312965824630   -3.64420027677485
C         0.57721154742609    2.74933624063001   -4.33494879816812
C         3.27967575746363   -0.21622611996203    0.14942950697735
C         4.44627151032427   -0.78196785761139    0.90917835057888
O         2.12249563234226   -0.29488065461919    0.59456895047093
H         2.67180973400123   -1.63908245963060   -4.12390214030535
H         3.91048061468659   -0.28953094445033   -4.05172240607961
H         2.11528234330162   -0.01934731988372   -3.89004134892225
H         3.71876448260544   -1.62082233355906   -1.99743047568067
H         2.00315164501550   -1.26885802825400   -1.73450583551420
H         4.95169622029966    1.58450194172735   -1.24365363029986
H         1.40260532856749    1.25531131135436   -1.52615911810190
H         3.67787436372986    2.05593820091869   -3.20430760682261
H         2.93802059902778    4.59092948286932   -2.83086511744284
H         2.78710842820465    4.80796422345221   -0.39031876938081
H         0.18676368192283    3.59890027331319   -1.55294758942233
H         0.71347474620332    5.33439743329338   -1.54261545627747
H         0.47229015434692    4.55454016375963   -0.05614857914793
H         1.64200778832691    2.41877699946315    0.43620929442701
H         5.64525002159608    2.95246814862417    1.95113596178154
H        -0.23924667529538    2.76760841167643   -5.01965594879316
H         4.31103656507165   -0.61063810629166    1.97568321350057
H         5.27826144457358   -0.20326376248247    0.49531113806288
H         4.57433927206284   -1.83727764079945    0.65264321040071
