36
 energy: -50.519860010103 gnorm: 0.307496172184 xtb: 6.4.1 (79825abcba525fcdf90b791dcacef51065a7a4e7)
C         2.97633389655715   -0.40644350431707   -3.60558974968008
C         3.16070653420844   -0.83106755038568   -2.15605777931644
C         3.41592619908789    0.41179328399546   -1.21995898773128
O         4.72890201086220    0.84511341118108   -1.61420102039837
C         2.37167957247908    1.57754972042858   -1.44347022072104
C         2.74721628536170    2.58295645118832   -2.61556833715173
N         3.07332784438497    3.86016023928147   -1.97185424054489
C         2.16003340430961    3.95053139998781   -0.82297850607685
C         0.69953513798793    4.34411851156625   -1.05220270873639
C         2.27149656446943    2.53089826591364   -0.24147134384805
C         3.60968595118120    2.49736835239047    0.47861650946103
C         4.72845211515102    2.35606300425665    1.13317361109460
C         1.61136259651157    2.53895191410530   -3.62467952050101
C         0.84165819162731    2.76685587790177   -4.65213255308198
C         3.29311086573845   -0.15353158039950    0.23235473078633
C         4.54564968230454   -0.78232815641073    0.77456230530306
O         2.21766663818038   -0.29155245054718    0.83879635458296
H         2.70762596106356   -1.33219318876062   -4.14223166197770
H         3.94624302814481   -0.08054997844111   -3.99454773958988
H         2.19503934460309    0.33595812295223   -3.74667098845146
H         3.96474856908807   -1.56157022480647   -1.97770864518705
H         2.20549273379676   -1.26544096133369   -1.83552147519539
H         5.09084552883635    1.48442135893897   -0.97731877927200
H         1.35585461526710    1.16279130846824   -1.55017162821889
H         3.65319024337768    2.15563128121882   -3.04374291553144
H         2.93989836244522    4.57779983892116   -2.68188927883469
H         2.62482039660279    4.66208188929857   -0.13010382891464
H         0.16289713019132    3.63107728594322   -1.68660685591035
H         0.72392324342352    5.31849252643395   -1.55316370145869
H         0.18049867105643    4.47239427519312   -0.09528331335269
H         1.45420540243743    2.29849142360706    0.44945277412760
H         5.66974312377050    2.31430250889396    1.63163777404930
H         0.02915456751110    2.65727697589623   -5.33300854028162
H         4.47455191911723   -1.82561673790347    0.47195852842180
H         4.55194363501161   -0.78845405655936    1.86923787578726
H         5.40580052331749   -0.26219403424210    0.34387518683998
