36
 energy: -50.519560963972 gnorm: 0.310045453082 xtb: 6.4.1 (79825abcba525fcdf90b791dcacef51065a7a4e7)
C         2.94991690649603   -0.28799930818286   -3.84907541460527
C         3.11320393312600   -0.73586703845450   -2.40401707383713
C         3.40713994094888    0.39773011670761   -1.34823292993703
O         4.74999340268040    0.87969008434872   -1.52587792743120
C         2.36405281927156    1.57701442484739   -1.49194821041844
C         2.84237062482448    2.60653417419266   -2.60414676419691
N         3.10405123186822    3.86698775883617   -1.90076487325429
C         2.24057000838362    3.89406152307690   -0.71086727183365
C         0.77610961646723    4.23900103476906   -0.98814369655897
C         2.29572103338259    2.43747824305726   -0.21968876348470
C         3.48806362243222    2.34741483777872    0.71871907785158
C         4.39488904155681    2.61068432708449    1.61783348916292
C         1.80836552549735    2.65529982046524   -3.71718794982799
C         0.72012884751455    2.64966088754049   -4.43534803614195
C         3.35533042552942   -0.32150226519531    0.03881842445727
C         4.63262595641229   -0.81189807646182    0.66031317527272
O         2.28176105408928   -0.41830304089810    0.65645900918403
H         2.60607397482897   -1.15110501248602   -4.44407251725861
H         3.91920134982594    0.04562317935568   -4.23300552730577
H         2.16619229780357    0.46432342460223   -3.81341713915022
H         3.94048544809060   -1.45994815275885   -2.34711369087543
H         2.25828526573924   -1.29201976096001   -1.99946126921098
H         4.96928140474360    1.44963767160865   -0.76930058724155
H         1.40322564106430    1.12569956734293   -1.78933024703799
H         3.75349903385287    2.17737317447106   -3.01935143787070
H         2.96611649804248    4.70540895887303   -2.46199892822611
H         2.67696587414397    4.64241048211204   -0.03860331278590
H         0.31508508094674    3.48144559168478   -1.63036086231392
H         0.63743793140292    5.20232741294473   -1.49186372266496
H         0.18953839341586    4.35815593324766   -0.06983843033779
H         1.44173225115221    2.20625227215749    0.42575032244474
H         5.17508259138410    2.81107849665256    2.31595912484878
H        -0.09431944193995    2.58720958974472   -5.11984462019254
H         4.42040936197422   -1.77853863651280    1.11379431119386
H         4.87440520125268   -0.02673508949925    1.38381412660967
H         5.40266008402657   -0.87047696779568   -0.11396475959754
