36
 energy: -50.516834676569 gnorm: 0.286717639833 xtb: 6.4.1 (79825abcba525fcdf90b791dcacef51065a7a4e7)
C         3.49156730279880   -0.27359567813286   -3.79140124985830
C         3.10973607355580   -0.72519551280986   -2.38936548666727
C         3.43897746955932    0.38715893494086   -1.32147562539327
O         4.77710269157806    0.88749182127460   -1.48329796081488
C         2.38757782904303    1.56410444200377   -1.41504061690372
C         2.83248036088776    2.64305106913255   -2.49375300475011
N         2.86575025476576    3.91253136956514   -1.75939682549643
C         2.00009788444627    3.78737051244142   -0.57737742418355
C         0.53637382814879    4.05836242749469   -0.93034342369669
C         2.26791361582189    2.35017343391524   -0.09918068108394
C         3.61041984432122    2.47298799277000    0.60295547470200
C         4.76400764058343    2.78156025521845    1.12647076964628
C         1.89806027004359    2.75759362140941   -3.68712826486346
C         0.87596839243350    3.31153659909994   -4.27748427887061
C         3.17802265449791   -0.46142642245488   -0.03473695649006
C         4.38682517421577   -0.91501529223876    0.73421119190760
O         2.01604420018256   -0.74139249925811    0.30412370620466
H         3.37805974948547   -1.05475126899696   -4.56218847700920
H         4.54276413062599    0.02946897598526   -3.75458174587187
H         2.83191602187629    0.53474178911113   -4.09625530687413
H         3.68717398199119   -1.63153471387675   -2.15053316694195
H         2.04938900755420   -0.99811400441315   -2.31839523268499
H         4.86077231173372    1.59257214219040   -0.81907067310208
H         1.38766312924596    1.18336243920030   -1.68058944778041
H         3.83150386548783    2.35452378332513   -2.81845768479867
H         2.63658019144565    4.67968913034761   -2.38861048486942
H         2.36310486768003    4.50150040547616    0.17138874899608
H         0.25338077311613    3.40897924441542   -1.76526448226903
H         0.35234639793328    5.08097001250740   -1.27872402778533
H        -0.20581488456513    3.87382841579778   -0.14507190112653
H         1.48826112465731    1.89423326220923    0.52018549603870
H         5.74952386101842    2.62730428393219    1.50223943600453
H         0.35763472578580    3.34102439321223   -5.20819502306784
H         5.21604102641798   -1.11797761862170    0.05872443679218
H         4.32149311681932   -1.82209288726297    1.34358274721597
H         4.53874673979522   -0.14243280977023    1.49310941370310
