36
 energy: -50.516326167266 gnorm: 0.308400399390 xtb: 6.4.1 (79825abcba525fcdf90b791dcacef51065a7a4e7)
C         2.88293455297867   -0.87961555113537   -3.38018389008229
C         2.70329169748920   -0.95415580189648   -1.87100730303960
C         3.23017260705620    0.33385382613316   -1.12969174030387
O         4.57782555103372    0.52863623097888   -1.59120008410713
C         2.33166217667115    1.61319878316934   -1.36496140450923
C         2.66921095567116    2.41653378738399   -2.69402052893063
N         2.98205595423374    3.78257610673000   -2.26040493067464
C         2.27853521834815    3.96871541971612   -0.98267261940132
C         0.80028244444206    4.35038047355181   -1.08070452943024
C         2.49030159399105    2.64207089384925   -0.23360510562021
C         3.91307513040514    2.59074527948954    0.29882587008814
C         5.15661149324276    2.72802535174686    0.66600622795118
C         1.59326270764890    2.50526837197779   -3.76400506298517
C         0.77455199066056    2.82761614956283   -4.72621578590779
C         3.30158339822225   -0.02851719331458    0.38934699502051
C         4.52010074301105   -0.73039695215762    0.91926014634670
O         2.37261907391812    0.31054291355153    1.14132107628317
H         2.69174278736066   -1.89116450963627   -3.77693996840879
H         3.90652094501555   -0.58498065397109   -3.63253247001633
H         2.17548444100338   -0.13316656536101   -3.73205534415457
H         3.33382988553480   -1.76168325067030   -1.46820812481327
H         1.65027562800007   -1.07899184003197   -1.58917348102778
H         4.81559049490250    1.44787797898945   -1.38191751290820
H         1.26260263542571    1.35025641598084   -1.42225948330924
H         3.51606700267210    2.02733785122759   -3.25801559080061
H         2.59976037198230    4.48712868399534   -2.88843003269005
H         2.84665905427234    4.74757844932415   -0.46016515649919
H         0.17846536408289    3.49034328125234   -1.35006731089162
H         0.63618432803136    5.10251742486675   -1.86065531638330
H         0.48493503719903    4.64687037042140   -0.07363054536964
H         1.90888878174465    2.41619297562190    0.66655722719483
H         6.19344412375153    2.68646803176500    0.90991258218630
H         0.39019758981773    2.84012704568854   -5.72013577969548
H         4.44606885474772   -0.67456541989186    2.00391544596753
H         5.40532618121013   -0.23917101197573    0.50276915679766
H         4.55977463467004   -1.79505197037868    0.67263079520438
