36
 energy: -50.515643871527 gnorm: 0.310623423640 xtb: 6.4.1 (79825abcba525fcdf90b791dcacef51065a7a4e7)
C         2.96336007020088   -0.47958251506149   -3.58774542058352
C         3.09328320925523   -0.80589570423334   -2.10717746984743
C         3.49856841569541    0.44406760977800   -1.23570934806979
O         4.85801402253797    0.82442016159904   -1.50835957239593
C         2.41082142108513    1.57109738556109   -1.45020100506744
C         2.80408144294755    2.51528746176799   -2.66656284371868
N         3.13003026291856    3.80734615377039   -2.05312353747790
C         2.25358655847969    3.96148538860560   -0.88253537697041
C         0.81253604762759    4.40399827141807   -1.14342902412731
C         2.25015571298291    2.54862342141202   -0.27447114672724
C         3.32137997281863    2.46099931275341    0.80033216931779
C         4.55014247071951    2.54223335892397    1.22881048518572
C         1.64340114876282    2.59453399126500   -3.64479929734929
C         0.62493611414203    2.63814952348219   -4.45773929218577
C         3.33971911830638   -0.18788017827956    0.18531134737069
C         4.51342883589055   -0.97343390657823    0.69867135547925
O         2.29985403817913   -0.05681721578152    0.85232303928904
H         2.96801278515623   -1.40352822332532   -4.19065806073914
H         3.95937027380084   -0.10911527883169   -3.85030271804436
H         2.24588179437905    0.26679726873171   -3.91884571826120
H         3.87983638596110   -1.56829350087100   -1.99758794149272
H         2.18038108122331   -1.24273393515484   -1.68333876507152
H         4.90931652675414    1.76973792470978   -1.28682146363115
H         1.47109008240356    1.09704948032662   -1.77806324073917
H         3.68900458748110    2.15585086848101   -3.19043822872402
H         3.14022578352354    4.54537532637510   -2.75467093933973
H         2.71013509830322    4.68871818362528   -0.20055132727195
H         0.20424965005196    3.59274362402663   -1.55662427515082
H         0.72945912244255    5.30041216410608   -1.76833043116839
H         0.38833436977101    4.56844567064504   -0.14615361393272
H         1.30273329228683    2.36435104367791    0.24301156479001
H         5.37527077921373    2.47715655224395    1.90050052188096
H        -0.17378424432171    2.68334065422482   -5.16184532208051
H         4.29534121215168   -2.03187175729401    0.56743835479287
H         4.76915237648941   -0.76588219747643    1.74266345222634
H         5.31003435902265   -0.65455215506002    0.02071528013915
