36
 energy: -50.519980991773 gnorm: 0.307829750480 xtb: 6.4.1 (79825abcba525fcdf90b791dcacef51065a7a4e7)
C         3.20978491395230   -0.70890249379918   -3.60404513961654
C         3.03787537205497   -0.89854485745407   -2.10407025385871
C         3.34707597949852    0.40048750818525   -1.26560084096078
O         4.70127009632952    0.67727279442481   -1.66138711858484
C         2.35947609555652    1.62442143221019   -1.42693443304499
C         2.80966311463743    2.60500878408495   -2.59375257504913
N         3.02572261192848    3.91218736818215   -1.96401570251306
C         2.15802601860311    4.00760801392771   -0.78072087704047
C         0.71673718225419    4.40303971829039   -1.10756943903156
C         2.28945704394041    2.57965472069058   -0.22429648197767
C         3.59897422870505    2.58094566426974    0.54743187552110
C         4.76598217814640    2.38006056638189    1.09313100360079
C         1.74016888055070    2.64969602756494   -3.67291451476023
C         0.67456265627442    2.66388509693172   -4.42413142652564
C         3.25210047849271   -0.14341280434999    0.19694592214280
C         4.50956490853013   -0.77805662283976    0.72062338903416
O         2.17272430681234   -0.14700474297114    0.81203588390885
H         2.86790095809825   -1.65852398099451   -4.04961821396304
H         4.22797756472628   -0.43913453465054   -3.90191692911876
H         2.54052017438361    0.08119247618462   -3.93468076291450
H         3.74846234511315   -1.67334182224121   -1.77744817995185
H         2.00971547055288   -1.20065572286067   -1.86854228591316
H         5.08076690794493    1.45813136468904   -1.22368995001262
H         1.37030585743097    1.22839797416229   -1.70980846740495
H         3.69756609066028    2.18081326599319   -3.06110205739366
H         2.92150579913989    4.69534318780789   -2.60648405706403
H         2.50262136555003    4.73007131968001   -0.03124961416160
H         0.36897577123449    3.75886460194491   -1.92180354682223
H         0.69101467809384    5.45086146158352   -1.42752156181317
H        -0.04124607629138    4.37400233765872   -0.31626263367095
H         1.51664517151801    2.21095791566678    0.45847609089683
H         5.64137736898662    2.54116319326667    1.67961921683535
H        -0.06790957489171    2.91844135144095   -5.14503216392238
H         4.53625181486236   -1.85361650158500    0.55469042386485
H         4.66075319422779   -0.54288296049378    1.77903124627595
H         5.41035199335506   -0.34087572957603    0.28091228243124
