36
 energy: -50.518257750819 gnorm: 0.300325539522 xtb: 6.4.1 (79825abcba525fcdf90b791dcacef51065a7a4e7)
C         3.24305244524542   -0.55539748061503   -3.71350433022578
C         3.06426074867920   -0.83662432662876   -2.22878659110878
C         3.37508143678647    0.43888144075540   -1.35551882374705
O         4.72039818285322    0.89041415956546   -1.58647258314989
C         2.38354792432213    1.66455559766411   -1.47375791818435
C         2.88184993734895    2.74909902786760   -2.52311254444900
N         2.87928184091734    4.02624240445392   -1.80140325961902
C         2.01185714804926    3.88543578334227   -0.62244735843295
C         0.52613639325119    4.16439405494927   -0.85766181336921
C         2.32764134166190    2.45419843728058   -0.15578599778417
C         3.67965922491351    2.56708779348912    0.52956441109750
C         4.82405508234142    2.56008303961048    1.15435151714614
C         2.04627628988403    2.67098387193284   -3.79044047495802
C         0.94735449441230    2.68011237992610   -4.49210448224735
C         3.23030938826281   -0.21136508456881    0.05873414340396
C         4.44250119361953   -0.91354261842590    0.60257732580413
O         2.14031159395990   -0.14077108205034    0.65061486291369
H         3.07456747776148   -1.49976360687360   -4.25846892249149
H         4.28480145661050   -0.30311608847105   -3.93561179488557
H         2.55024003211761    0.20160800032641   -4.07188810456659
H         3.60758804883375   -1.72583916132248   -1.87379563575217
H         1.99588963496438   -1.07411670843556   -2.15108387002802
H         4.94722056149952    1.52357139235280   -0.88433279623022
H         1.36136056519541    1.29855335403460   -1.66476947164579
H         3.90596722517881    2.58937050435036   -2.85837311804109
H         2.53799427761431    4.75097452533096   -2.43008913179091
H         2.34448684333503    4.56916574360344    0.16766477472808
H         0.09950618471095    3.51115612807743   -1.62586988062936
H         0.35965716053136    5.20035954504174   -1.17392369813172
H        -0.03197934310072    3.96659443204290    0.06479706663036
H         1.54234081209023    2.02637581469586    0.47637282686682
H         5.83840386524163    2.74689324329439    1.42349404398175
H         0.24325846325740    2.37452461301030   -5.23144654435272
H         5.26117458785104   -0.78758975064411   -0.10381119751341
H         4.19748583380271   -1.97512690850611    0.70933880973697
H         4.58573590497170   -0.60714178933463    1.64252574627799
