36
 energy: -50.523051397176 gnorm: 0.301710235536 xtb: 6.4.1 (79825abcba525fcdf90b791dcacef51065a7a4e7)
C         3.02054414072506   -0.63334288392339   -3.67830660750998
C         2.94264590231462   -0.78372532400658   -2.16610333359677
C         3.42568575578971    0.40091843610237   -1.24446745040211
O         4.79149065717706    0.73140599440812   -1.54852913529233
C         2.46055484709456    1.64732308061180   -1.36444281504406
C         2.88707412047620    2.54317599317599   -2.60589895750032
N         2.87176027923258    3.92550771239059   -2.11509287933525
C         2.16422972748393    3.98836136060338   -0.82759955988848
C         0.67866674130938    4.31278361423348   -0.99601133262751
C         2.41247558482377    2.61849694160856   -0.17355196416537
C         3.72274449206858    2.62371810377286    0.59688274388620
C         4.91675771636502    2.60135515684898    1.12022028775669
C         1.84328106713956    2.43702147478273   -3.70573197919099
C         0.74919371593211    2.68091245912120   -4.37171612916538
C         3.24728237966068   -0.25899220861640    0.16144189730976
C         4.43076299557121   -0.91515178257356    0.81493703337485
O         2.11071523650880   -0.17232100632239    0.65551144401835
H         2.70875193751350   -1.54240921872241   -4.22014144087444
H         4.04017306261754   -0.43967872229558   -4.02625729029043
H         2.37984280699371    0.18408439150846   -3.99893055502266
H         3.66121015734355   -1.57721343798531   -1.90926060013884
H         1.92025236904963   -1.03787150675547   -1.85954443831954
H         5.02553205751432    1.60122343124285   -1.18249772017069
H         1.44198206603840    1.30633841856038   -1.61253353598034
H         3.83693553054027    2.26592604109085   -3.06155764621864
H         2.50549560409294    4.62109121718821   -2.76237453846932
H         2.62413993819339    4.70577829032344   -0.13752572711317
H         0.23809016259608    3.57891238794821   -1.67880124176478
H         0.56510109136200    5.29543576509469   -1.46766693276700
H         0.18302647774518    4.31056155614799   -0.01831810797349
H         1.57925773530853    2.38191916148756    0.49662178852378
H         5.81865123430668    2.90018020760153    1.60347060002335
H         0.10093182437814    2.74958206837216   -5.21480734519916
H         5.22137737193058   -1.01413928787929    0.07317873315902
H         4.19897566904096   -1.91996995506531    1.18236976595650
H         4.76160309585080   -0.30306305261504    1.65860911277038
