36
 energy: -50.520205650555 gnorm: 0.307104664891 xtb: 6.4.1 (79825abcba525fcdf90b791dcacef51065a7a4e7)
C         3.50099034481343   -0.22345981611904   -3.81257874629292
C         3.06624869691909   -0.69866023057515   -2.43394680402666
C         3.35781308301869    0.35759105407749   -1.30017236657451
O         4.72428894179766    0.77952705675807   -1.44786225670171
C         2.41329124718866    1.62490464767726   -1.33468413805972
C         2.80490694384933    2.68377454600266   -2.45321717077714
N         2.81433035092339    4.01122569878722   -1.82891700258612
C         2.10981322323547    3.89946866373925   -0.54308843682245
C         0.61971150387498    4.16181156984520   -0.76954547528950
C         2.44187612624002    2.47862860882878   -0.05638463174054
C         3.80561165924983    2.57692914701700    0.60766655676121
C         5.02485397917362    3.00959652244461    0.76983013113916
C         1.74860721428083    2.56099446796379   -3.53929325976183
C         0.93157588756319    2.42855809751051   -4.54674806353137
C         3.03636924919671   -0.43120207022726    0.01069382503926
C         4.19257565894108   -1.08788725085337    0.71082163843317
O         1.87400995442407   -0.52591721303894    0.43888932428941
H         3.56045911449622   -1.05651513715898   -4.53346935230309
H         4.54653042622037    0.06770123453459   -3.67013643932478
H         2.86979680347566    0.56289004227789   -4.21845296237707
H         3.67877388913470   -1.57663829600440   -2.17724937919713
H         2.00598430483777   -0.97669168797237   -2.38500702183372
H         4.78226358093947    1.68032827952795   -1.08656895418755
H         1.40118126846031    1.22418086525827   -1.50893651713129
H         3.77896474326565    2.40985096951716   -2.85683373268853
H         2.47344469421909    4.76321907882247   -2.42495617045442
H         2.55969685432409    4.65526913986282    0.11172200272714
H         0.20508005703501    3.31443539688181   -1.32534323225676
H         0.42422307788011    5.03409143615969   -1.40348042632249
H         0.04768498189540    4.26750042205573    0.15952060224238
H         1.82242811859130    2.19783301637638    0.80198120219165
H         5.86274438516361    3.37828295139242    1.31595210399768
H         0.18442535789907    2.40894121644498   -5.30644736311949
H         3.95548810125178   -1.67981745283648    1.59313853780555
H         4.84209224478559   -0.25972967260074    1.01194449365515
H         4.76930617221791   -1.66153599043147   -0.02006782039606
