36
 energy: -50.520302843566 gnorm: 0.300668852248 xtb: 6.4.1 (79825abcba525fcdf90b791dcacef51065a7a4e7)
C         3.30024799341996   -0.43572447437826   -3.72897743154046
C         3.10393227419451   -0.81699394669827   -2.26899951907255
C         3.40804569498069    0.37102453048131   -1.27791516607568
O         4.78031842433221    0.74529455582182   -1.48741002535066
C         2.40784843071035    1.58993667620967   -1.39304539760539
C         2.69402104815652    2.48813554411446   -2.67250955174524
N         3.01377333526475    3.81334051922112   -2.13070116317942
C         2.30093097722827    3.98277338463535   -0.85581395193611
C         0.83138575375459    4.38824939150903   -0.98440544371392
C         2.53179333044197    2.59426036760334   -0.23559865362569
C         3.90382321172332    2.47958999120358    0.40844043331767
C         4.69564761099942    2.72241151055974    1.41546664533894
C         1.46660766731768    2.42506650879350   -3.56687192042398
C         0.40652438187409    2.57434077264158   -4.31117388031329
C         3.11177626507756   -0.20803569246857    0.14363491769564
C         4.33494660726529   -0.80798855466099    0.77777887341964
O         1.99114534039938   -0.24219355167581    0.67881812485575
H         3.43594388902902   -1.35062625510063   -4.33042761860953
H         4.26815881534217    0.07193794981218   -3.78936066350622
H         2.48937731137997    0.14615570390889   -4.15954619759043
H         3.71857888250036   -1.66373638844517   -1.92670878352326
H         2.03297039429716   -1.04049763845867   -2.18566923542684
H         4.91964583114925    1.57078550203199   -0.99295140557404
H         1.37558837984326    1.20342745563143   -1.41201590568000
H         3.56006449501236    2.13589188970798   -3.23163585399451
H         2.86314874283610    4.57742025538994   -2.78679121538065
H         2.76978769235391    4.76277481024826   -0.24411344105385
H         0.27541091815082    3.69784702044901   -1.62714435581230
H         0.73954657183814    5.32651368654029   -1.54314249445436
H         0.41306538743649    4.51919114814632    0.02028882873526
H         1.88010047487679    2.30513539140269    0.59569978896822
H         5.60346332203664    2.60973886173701    1.96265469064530
H        -0.29849035131186    2.42911687914491   -5.09706574374603
H         4.90471960336886   -1.30673544964008   -0.00432423266170
H         4.05305249413593   -1.51969595634826    1.56033879296219
H         5.04705185377621   -0.04405708926166    1.10213238721270
