36
 energy: -50.520670395257 gnorm: 0.306520168508 xtb: 6.4.1 (79825abcba525fcdf90b791dcacef51065a7a4e7)
C         3.54332524245253   -0.21138558656902   -3.91171745417758
C         3.21275168649353   -0.64502891453340   -2.49111323501134
C         3.39976681865541    0.40221986020145   -1.32731927131809
O         4.79072196280190    0.75615416699201   -1.41141967399369
C         2.42958685199352    1.64768117775042   -1.41082526487814
C         2.85458219182654    2.70224498530098   -2.52121196865254
N         2.82532472309467    4.01040199503592   -1.85801113677098
C         2.01980668840063    3.93174221497411   -0.63035383023356
C         0.53843158551747    4.24207425423193   -0.85335956518727
C         2.29680642633305    2.50082899603692   -0.13873269858448
C         3.60498128111038    2.59599077819666    0.62939773394891
C         4.74421048373668    2.42886530486834    1.24117858121157
C         1.81532410120011    2.55721117169244   -3.62089974858598
C         0.84048747922935    2.78996925685271   -4.45490338399158
C         3.14575036008098   -0.41169622979976   -0.01701123290566
C         4.30196843884851   -0.97438900644601    0.76065466206248
O         2.00315436959117   -0.60533479884834    0.43062700272388
H         3.40191537204662   -1.10709286327239   -4.54013824792878
H         4.57855450413820    0.14249621312395   -3.87584718828933
H         2.91035287475947    0.58966782063278   -4.28473847740606
H         3.85434432894480   -1.48532165333148   -2.18420419916403
H         2.22477766650266   -1.11697669848848   -2.42019214595701
H         4.99197933640192    1.46997080681334   -0.78269236784544
H         1.42851525581125    1.24358634017007   -1.63414810186045
H         3.88220995896138    2.53264433393905   -2.84050159829910
H         2.49059062908922    4.75624046647766   -2.46516666562193
H         2.39865087197522    4.64818624260671    0.10828775989620
H         0.07062741647425    3.56348207204258   -1.57415681143663
H         0.40061363819431    5.26179981130727   -1.23035746391650
H        -0.04461326062503    4.27872466086103    0.07414445514028
H         1.50145468095285    2.10936500290095    0.50432674755336
H         5.72333611947793    2.28570476576473    1.63748309307345
H         0.09582751676895    2.68965852749983   -5.21066861934051
H         5.09724852286819   -1.45482579873973    0.19339364229896
H         3.93837803416428   -1.67320055039936    1.52082318522586
H         4.92524342344487   -0.21290145738203    1.23768230055991
