36
 energy: -50.511293772875 gnorm: 0.308208629902 xtb: 6.4.1 (79825abcba525fcdf90b791dcacef51065a7a4e7)
C         3.12182655385405   -0.51832382866657   -3.85293365784840
C         2.67899565708552   -0.74144020399803   -2.41433654651904
C         3.31873425185444    0.32314922942925   -1.44299474059684
O         4.71208301268906    0.51824628705700   -1.73899295890903
C         2.51500594020986    1.68364685736369   -1.49262644201527
C         3.13598581577028    2.93092549421538   -2.25706379967627
N         2.72320323476582    4.13153479870425   -1.52213935116461
C         1.79746449129730    3.76339871041748   -0.44062526082292
C         0.31970847590119    3.87211413387734   -0.82131916722820
C         2.17830775695940    2.30632549093461   -0.12784917168022
C         3.40778542448307    2.44290371538387    0.75540201171931
C         4.58810101321963    2.75382822179554    1.21391154445490
C         2.51556701024129    3.02980691954616   -3.64115496780628
C         1.59440827589191    3.03659299098238   -4.56390377634375
C         3.35308272131062   -0.31687443215744   -0.01713331487770
C         4.66116571705482   -0.52466127019870    0.69277594545844
O         2.31717513286222   -0.75535818615106    0.51015118702676
H         2.81270382373959   -1.34018525734959   -4.52090663539506
H         4.21374130996576   -0.44354747587843   -3.83424428020486
H         2.68939374473870    0.41944716553839   -4.19215732451965
H         2.85141380116423   -1.76061979721025   -2.03556076602352
H         1.59658518110628   -0.56787676946401   -2.36828791624445
H         4.88626155990773    0.94520452159184   -2.59497499515710
H         1.58613890631955    1.41970193645994   -2.02446211198290
H         4.21948270463756    2.84992498485509   -2.33581963075375
H         2.32991842998685    4.76982436922780   -2.21124983858797
H         1.96679366385287    4.33105057534966    0.48214521553182
H         0.07923438991655    3.26418212646424   -1.69965147925637
H         0.07325903651241    4.91454794430078   -1.05274051742454
H        -0.30918535392951    3.54065604330139    0.01305265630698
H         1.47677572401373    1.72408286598576    0.47894589142923
H         5.51540873556276    2.78932381592240    1.73839193358585
H         1.03531508554896    3.10333162352636   -5.46873666060965
H         5.35937322004026    0.30466469346302    0.59378241378502
H         5.14528537799972   -1.43051746054946    0.31403532567145
H         4.44195670536204   -0.64098151160973    1.75781461860994
