36
 energy: -50.520738115752 gnorm: 0.300319117928 xtb: 6.4.1 (79825abcba525fcdf90b791dcacef51065a7a4e7)
C         2.75728374221668   -0.67704239420552   -3.60071900670374
C         2.83156212215810   -0.90238494626525   -2.09767368907571
C         3.30316126365147    0.32119116023733   -1.22212995654863
O         4.67682609060441    0.63876763359841   -1.50371250389923
C         2.42030856595170    1.62447038478203   -1.36852234863557
C         2.81287295343269    2.43881056361550   -2.67559074254990
N         3.02796954473525    3.80729177278646   -2.19293273191021
C         2.30732644622489    4.01246488814465   -0.92771865929955
C         0.79569001109953    4.17240784839772   -1.10058642810245
C         2.63153032829368    2.66632947126997   -0.25783500939609
C         3.99779409945633    2.61557806938221    0.40635560464942
C         5.03267464050541    3.00809163924219    1.09556186889412
C         1.64256284042483    2.45217502198893   -3.64543662705642
C         0.67841668606115    2.78283109580293   -4.45853784642228
C         3.20844224549956   -0.21609958317358    0.24287445634943
C         4.49447311204798   -0.70805098807922    0.84481806242293
O         2.13652025237400   -0.15978280687183    0.86834480925682
H         2.15157950154219   -1.47071247914196   -4.07019865467034
H         3.75906068141929   -0.66718402147709   -4.04181355919260
H         2.28198980546238    0.27269408290176   -3.83219592728892
H         3.63091688813739   -1.63099963061596   -1.89254258735130
H         1.90924653035825   -1.27717005213024   -1.63645004071336
H         4.85953867732847    1.48063867592455   -1.05292872544286
H         1.37493910865520    1.27884115585040   -1.31326655063553
H         3.69973158088643    2.07367950866569   -3.19220488310552
H         2.73885059737278    4.41290816875116   -2.95883011065231
H         2.77446329082484    4.88786020180391   -0.46095044531735
H         0.28109280287292    3.24444074399432   -1.37066702041561
H         0.57303784751243    4.94204019547386   -1.84828521645214
H         0.32143211728375    4.53005232284213   -0.17932743441034
H         1.91875681686782    2.48359420945624    0.55328499750813
H         5.91676646303414    2.94509050227434    1.68772039974557
H         0.02264582909820    2.60992587857732   -5.28062675119152
H         4.76562432418627    0.15846319087813    1.44540544463400
H         5.21986305401133   -0.86947920836546    0.04098841055254
H         4.38359269866351   -1.58828661769639    1.48417800498244
