36
 energy: -50.504881146475 gnorm: 0.297046803438 xtb: 6.4.1 (79825abcba525fcdf90b791dcacef51065a7a4e7)
C         1.94406815133017   -0.51399705722595   -3.50282048931869
C         2.61986064048227   -0.82979811383659   -2.17654149117349
C         3.34527963699941    0.36249428817558   -1.44283365483897
O         4.56563159565453    0.46436232742988   -2.19613479359180
C         2.50496308042206    1.70078953585363   -1.49005926721846
C         3.25223789160934    2.96502603079546   -2.09748906812385
N         2.64269004010088    4.17243920916289   -1.52953576244002
C         1.65697366655231    3.75080439480406   -0.52316781259231
C         0.21518333348243    3.80363702502034   -1.03204804042484
C         2.09409152259329    2.32498926615162   -0.14645567280577
C         3.20940357827076    2.33729696694173    0.88617645742759
C         4.19067253450326    2.63007832310191    1.69329492905126
C         3.13244665509988    3.00457219217638   -3.61224700030455
C         2.58372533223083    2.89256873775486   -4.78970400443685
C         3.70495645711297   -0.15364883031471   -0.01170828932046
C         5.14555476433064   -0.50450387513064    0.23284216553692
O         2.80128899678044   -0.40200232187480    0.80383273241922
H         2.26525330588982   -1.27535474635768   -4.23383043323840
H         2.11625763431371    0.46276055544728   -3.96597702412977
H         0.87035671052059   -0.57313598432331   -3.34429100054269
H         3.42362958419358   -1.58187514363034   -2.19272164592556
H         1.89425155198319   -1.29241638613366   -1.49585582962373
H         4.34657061845471    1.07748205156173   -2.91823814522780
H         1.64843403982140    1.40326124990095   -2.11707202068960
H         4.30348315337834    2.91653991366569   -1.81595472005672
H         2.19076046121000    4.77725882812769   -2.21284584094503
H         1.70427717729450    4.37021901674605    0.38043290913776
H         0.11594657210748    3.17479222871098   -1.92288082551350
H        -0.06018410297420    4.83781484201344   -1.26786668734191
H        -0.40000710892898    3.40865854431016   -0.21529778659716
H         1.25225392184439    1.81653032171849    0.33534602689203
H         4.82480997825730    2.69891646725995    2.54732668025644
H         2.65010819757278    3.18791102781670   -5.81152985036242
H         5.63933955462029    0.46124509946667    0.32547315432799
H         5.57956843843536   -1.02505240226705   -0.62683981397052
H         5.29513426264495   -1.18044112623318    1.07937933023931
