36
 energy: -50.517448603844 gnorm: 0.310032349076 xtb: 6.4.1 (79825abcba525fcdf90b791dcacef51065a7a4e7)
C         3.81396346465521   -0.13921019300367   -3.86093778882306
C         3.13736269573922   -0.54917836958055   -2.56109962174892
C         3.35662836385368    0.37096384069956   -1.29959974437050
O         4.75981096358778    0.68134557254565   -1.25670037208076
C         2.41778466269687    1.64269011628566   -1.27350143162914
C         2.76248434500828    2.63983813405987   -2.46201413790554
N         2.72341012460069    4.00805368533565   -1.93435372890035
C         2.06037172405864    3.95302102919223   -0.62304117487086
C         0.54101296455543    4.03910181045775   -0.46604183623409
C         2.53472122158305    2.59687582412026   -0.07368192883499
C         3.98472850225582    2.82128949825675    0.32320468660602
C         5.10554928039940    3.20589141768132    0.86716430529864
C         1.79309259680989    2.51238662989340   -3.62581872660275
C         0.93884331883474    2.32365196430072   -4.59260835918449
C         2.94250983757046   -0.53735881575737   -0.09654249331997
C         3.99884359667954   -1.26354963631929    0.68769825702802
O         1.75649934946278   -0.48430761119009    0.26947142753169
H         3.80335707488130   -0.95599552320925   -4.60252406014852
H         4.86317777727541    0.14171517312139   -3.72511109019156
H         3.28587025896027    0.72383917396992   -4.25811359800685
H         3.44868767374191   -1.57120464858118   -2.29564679237442
H         2.05905128206946   -0.67899789788622   -2.71681912833710
H         4.88613115108695    1.44450703550292   -0.66766340894449
H         1.35784616303329    1.34309561543573   -1.31914764866680
H         3.76963566114104    2.40623929082776   -2.80524421117323
H         2.23917096247751    4.58107319354988   -2.62291807031514
H         2.45614653020872    4.77848323276941   -0.01940153427870
H        -0.03204438250662    3.20856449376473   -0.89111806911148
H         0.18105227424972    4.98984581410320   -0.87527961085674
H         0.39017901782225    4.02027544966373    0.61951928412897
H         1.96264590138424    2.21036575783970    0.77643201242925
H         5.99945612542038    3.49543970756897    1.37048484284446
H         0.08489691037156    2.26147571579425   -5.22717232158162
H         4.66875917576579   -0.51643671840410    1.10972953947994
H         4.54983341295584   -2.00208891322507    0.09662998525727
H         3.44117971302818   -1.71604861692121    1.51240792608685
