36
 energy: -50.517389082945 gnorm: 0.310748622870 xtb: 6.4.1 (79825abcba525fcdf90b791dcacef51065a7a4e7)
C         3.15790555620161   -0.47020154817511   -3.68024571903868
C         3.02310806665487   -0.76443515636614   -2.19340410115096
C         3.40609449704224    0.44593800438377   -1.25828952456334
O         4.74725945657425    0.83827439010982   -1.59659010883671
C         2.36737925025539    1.63253292001336   -1.36991149842342
C         2.78394905729496    2.57560715158343   -2.57935974777240
N         3.03783171549750    3.91880637347731   -2.04707644451484
C         2.27034972755247    4.05117407202219   -0.79982373958680
C         0.80768176346802    4.41599686816907   -1.06062343525264
C         2.31492583669233    2.63367987116879   -0.20429373598865
C         3.58794531458695    2.46378105435597    0.60869912349088
C         4.70137327939035    2.59810043615129    1.27374528196460
C         1.70702519373789    2.50003851669851   -3.64937362727826
C         0.65686934001368    2.41342677999106   -4.41730322849386
C         3.23811782481139   -0.24667308100323    0.13309994303661
C         4.44620588908673   -0.95127906024963    0.68290109459767
O         2.14888016082626   -0.23894691786910    0.73051362174069
H         2.96749600699570   -1.35145643492410   -4.31611913329068
H         4.17384032522327   -0.06660628398535   -3.73686762979297
H         2.39320538174002    0.27059796036456   -3.89918635354618
H         3.80088449774490   -1.50345819021459   -1.94675668623616
H         2.04912421654374   -1.23738041118193   -2.01582195128136
H         4.89379272674694    1.60583457577381   -1.01804355257148
H         1.38372361958026    1.14908002932763   -1.48825404498768
H         3.69073799137511    2.22028941908379   -3.06742962426135
H         2.80650818007096    4.66602859641132   -2.69907961762787
H         2.79711428820346    4.77253762454856   -0.16377336817623
H         0.30954347897000    3.69758939653076   -1.71988492719036
H         0.79733041272349    5.38483500894818   -1.57268487836748
H         0.27151280703912    4.50871918861469   -0.10905963031594
H         1.47932533928996    2.44106367079901    0.47689986538496
H         5.71340387024859    2.35217049004960    1.50079543661343
H        -0.19774231127343    2.11658885055109   -4.98058639746344
H         4.06886826908163   -1.83002090375872    1.20300117188175
H         4.93643344862995   -0.24837051653760    1.36406793524160
H         5.21903136305669   -1.12344305889693   -0.07141363282895
