36
 energy: -50.519948726588 gnorm: 0.304143573332 xtb: 6.4.1 (79825abcba525fcdf90b791dcacef51065a7a4e7)
C         2.53209183556281   -0.76146468966345   -3.39020934046175
C         2.81086496330146   -0.98938983030736   -1.91177183792233
C         3.29192058848748    0.35154630897115   -1.23605236094279
O         4.60303868078727    0.72008505966118   -1.69675523249708
C         2.34391821038658    1.60556898057755   -1.40372756186814
C         2.88660174789329    2.55681978631276   -2.55537897642787
N         3.00413783526932    3.90106677760810   -1.97992143610389
C         2.13661145832353    3.99510570450648   -0.79639121112903
C         0.66456803840560    4.23135851709722   -1.13958577584834
C         2.32458091927298    2.58272542212352   -0.21692399016100
C         3.69521835581835    2.59459738231848    0.44004912556283
C         4.96476876320779    2.49135832051838    0.71867680002090
C         1.94293360766459    2.49231468989950   -3.74522556337635
C         1.12689162580183    2.79448620082640   -4.71621097118728
C         3.38166565517358   -0.02279275747573    0.27910671875138
C         4.67761039651029   -0.64852816462954    0.71178454802611
O         2.39410896947477    0.00737159855864    1.03224906791820
H         2.37185618694829   -1.73718822486484   -3.87958556756627
H         3.40927544363306   -0.31177646888072   -3.86617998169405
H         1.69753967404211   -0.08470238088460   -3.55452834242001
H         3.63517019014966   -1.71837501938868   -1.87971488611998
H         1.97643135732648   -1.33080574202622   -1.28646158475024
H         4.86429397797276    1.40727619339421   -1.06047638416813
H         1.33695716881146    1.24786414779134   -1.67462750441608
H         3.87990498313065    2.24276912834291   -2.87389104882422
H         2.85782159753768    4.65599184177497   -2.64748377507355
H         2.55983840740043    4.76188887987935   -0.13659664655014
H         0.38179297426513    3.64974118224597   -2.02312202306453
H         0.34370724961646    5.26338272245757   -1.32106802377191
H         0.03276366635888    3.99483410394539   -0.27562530695828
H         1.59585901490446    2.34206239432595    0.56435675840675
H         5.93138052631161    2.59328519628812    1.15629745446759
H         0.59726396106485    2.82158063759864   -5.64061467432294
H         5.46760122810806   -0.12762683505141    0.17359193204660
H         4.61933312681591   -1.71604903178861    0.47642374994800
H         4.77452884792972   -0.50792584489708    1.79193646827813
