36
 energy: -50.518178315739 gnorm: 0.305410504504 xtb: 6.4.1 (79825abcba525fcdf90b791dcacef51065a7a4e7)
C         2.95464810841351   -0.83075156195569   -3.48203774708490
C         2.49633063203449   -0.86941228900334   -2.03155775506735
C         3.18852544027535    0.29405473253529   -1.22326828429853
O         4.51961112439005    0.50635461008897   -1.72350646070932
C         2.41108911561698    1.67035452144689   -1.25133869874843
C         2.79372284863964    2.53838261192907   -2.52640854706004
N         2.95223093691132    3.90730095337772   -2.02351307535586
C         2.20396568597480    4.01379941112285   -0.76218587121271
C         0.68812462252782    4.09779319586973   -0.95107905281363
C         2.64006991442367    2.68589594211392   -0.11998785836860
C         4.07930533268163    2.85585432848825    0.33839743944488
C         5.35996228131696    3.09269002400529    0.40065906233564
C         1.77135354209351    2.57421283019868   -3.65063385898992
C         1.06979995075154    2.22684332561197   -4.69332354950408
C         3.16092927065916   -0.14205124286839    0.27771171333862
C         4.44919470465134   -0.60494694448322    0.89765315932552
O         2.05708997150023   -0.13201726400643    0.84765873474410
H         2.57182584057130   -1.72513184577707   -4.00235686968456
H         4.04254492390119   -0.89164672819180   -3.58687535970575
H         2.59609836478567   -0.01094195294892   -4.09915973707355
H         2.76277985245626   -1.82200749719415   -1.54834627203463
H         1.41774661210465   -0.68871577608922   -1.94288724370015
H         4.87031407810635    1.25729011735544   -1.21513646210199
H         1.33650869606078    1.44930029559168   -1.14307049986690
H         3.74391237141593    2.28663023071362   -2.99597182869145
H         2.71987269725183    4.61033563837350   -2.72259222023851
H         2.59244240611162    4.86217160489696   -0.18620253263966
H         0.23425396553776    3.22877063344060   -1.43860132946690
H         0.53753370622875    5.00725075246922   -1.54367566436123
H         0.17880174750200    4.28737970737038    0.00086391565426
H         2.00961640429929    2.41009710208732    0.73196124147278
H         6.39066152394771    3.26189796916882    0.61341934496282
H         0.37307438008113    2.39244111799508   -5.48257169281163
H         5.03036995592762    0.27167461493644    1.17844661233510
H         5.02546790126426   -1.08733091752658    0.10165903223804
H         4.30134660694567   -1.25056563837347    1.76783003950167
