36
 energy: -50.514775277941 gnorm: 0.299156896541 xtb: 6.4.1 (79825abcba525fcdf90b791dcacef51065a7a4e7)
C         2.56955985615918   -0.72225728565592   -3.37935563210010
C         2.82620287033933   -0.89883024721280   -1.88992683796838
C         3.31168244201702    0.40164160629740   -1.14212764880382
O         4.62594105841834    0.51685814487569   -1.71357146792526
C         2.33727423751088    1.61396057349737   -1.42533732155476
C         2.86114405307149    2.55178347488945   -2.59654742371434
N         3.02600488398041    3.88102689492621   -1.99830087953861
C         2.13943285380553    3.91833591481835   -0.82578767808212
C         0.69672460498126    4.28028858623654   -1.18368837987771
C         2.31298771238499    2.52860984234539   -0.18980575050949
C         3.65369491958522    2.52256536335057    0.52634316861882
C         4.94514227776608    2.65241950333942    0.65024463162528
C         1.99342105721950    2.52766043696645   -3.84429749184463
C         1.03856907210216    2.79799516321986   -4.69000525627960
C         3.39864726543309   -0.02076616513267    0.36050329040264
C         4.70355760333173   -0.63454503694143    0.78324692151693
O         2.37362043369740   -0.03250210801532    1.06234640306316
H         2.66428745358612   -1.72683898788485   -3.82549827683849
H         3.32233803993256   -0.12678270329538   -3.90561949865991
H         1.62359513583616   -0.22746244673325   -3.58384055566008
H         3.59768340863482   -1.68337096143423   -1.85471587041029
H         1.95011028301398   -1.33596298916248   -1.39471584522248
H         4.95044111875176    1.34276162339727   -1.31618008262674
H         1.31684815885387    1.25927677526486   -1.64497357367602
H         3.84456163304323    2.19981226130189   -2.90595848462641
H         2.73840704301886    4.68644166387817   -2.55107054602124
H         2.48854121739490    4.70035117798012   -0.14096518837907
H         0.34023463405743    3.86429979215777   -2.13170999663665
H         0.59475501239214    5.36889820032723   -1.25780132050822
H         0.03296012701698    3.98912085576312   -0.36138288488630
H         1.48699786893170    2.30849641386545    0.49477060299308
H         5.91902696653052    2.56252691801693    1.07416346316384
H         0.40227216032197    2.95184968519291   -5.53096708523640
H         5.49064569198472    0.06514857804639    0.50757286500414
H         4.73679292172781   -1.55429854528738    0.19050697272771
H         4.72318948328280   -0.89162650852623    1.84598586978816
