36
 energy: -50.516479250069 gnorm: 0.302293989982 xtb: 6.4.1 (79825abcba525fcdf90b791dcacef51065a7a4e7)
C         3.08985151859560   -0.43111053660945   -3.88348779965975
C         3.26880243272534   -0.82525429474647   -2.42469754039637
C         3.56670434535564    0.29394944023491   -1.35476367265646
O         4.94981526535609    0.68579474820070   -1.37842793385651
C         2.60744187023735    1.54521193264807   -1.47118522402709
C         2.97668668280900    2.67502567080559   -2.52610875394028
N         2.88996865896463    3.93241100392784   -1.77549020170936
C         1.99186031257864    3.81831700984398   -0.61679564318695
C         0.52390405569370    4.13991023840735   -0.90348699847433
C         2.37306814579815    2.38601440476518   -0.20555040898291
C         3.60191707802837    2.45890672342679    0.68608773728347
C         4.61065051207712    2.95408029681942    1.34738185196393
C         1.98555370836392    2.74257912373211   -3.67654229883737
C         0.97366029504594    3.18486445580044   -4.36972353659355
C         3.10946407673363   -0.41117010241203   -0.03657222143326
C         4.32483545843836   -0.82514194278984    0.74427820653985
O         1.92077155419904   -0.63113851251462    0.24982867102091
H         2.77537104257250   -1.33826210081816   -4.42697564499043
H         4.00943118547124   -0.05878828344740   -4.34605455035418
H         2.37718112387610    0.38216331163487   -3.99381376796777
H         4.08857012346353   -1.55471460729609   -2.33640969788077
H         2.38027975589520   -1.37501638046390   -2.08981506196428
H         5.06733427129643    1.59798588537627   -1.06309737879924
H         1.61653687770668    1.16191309716487   -1.76529295530372
H         3.99964724227566    2.59647492343113   -2.89231981383238
H         2.53884279929412    4.70186938867505   -2.34259177995366
H         2.30193520264802    4.51791051483692    0.16858887467126
H         0.00669186933521    3.46345455114966   -1.59180088915440
H         0.41314596324869    5.15958656733615   -1.28943290138731
H        -0.01966641118438    4.09278131113681    0.04722760787545
H         1.62571143508000    1.92342812964796    0.44776865267320
H         5.46510136756292    2.93184532222845    1.98429516248214
H         0.13186085856863    3.31237861592984   -5.01071935124567
H         5.22308659604630   -0.88055969319608    0.13178431786246
H         4.12512746995398   -1.80688841702368    1.18550640642168
H         4.44007414102743   -0.09858138007499    1.55342600756748
