36
 energy: -50.515642373295 gnorm: 0.302550896509 xtb: 6.4.1 (79825abcba525fcdf90b791dcacef51065a7a4e7)
C         3.95439201019060   -0.14684436633055   -3.74353168005252
C         3.09458984302817   -0.55333671697061   -2.55569920721982
C         3.37452879689987    0.37541180870281   -1.31264593668288
O         4.79880282404785    0.55440104171070   -1.23199269398611
C         2.54695594108660    1.72098014552776   -1.37561708350869
C         2.71561887713242    2.69653548013179   -2.61881018617582
N         2.68007709366831    3.98734587878845   -1.92274166092555
C         2.10589545517089    3.92902172935056   -0.57029836623498
C         0.58184876514106    4.05591699999906   -0.52920078824235
C         2.57635157576387    2.54891776231006   -0.08048521302492
C         3.94382705590841    2.67745261985047    0.57058406529562
C         5.06932546397854    3.24586059995674    0.90257146708299
C         1.62450057922935    2.34637524777789   -3.61743626991900
C         0.67019897764128    2.40269204081777   -4.50410514264128
C         2.88298252717082   -0.41480747500275   -0.05653021481845
C         3.98254120600886   -1.19644929887288    0.60546257773227
O         1.71235702414974   -0.49241726908235    0.35214342923693
H         4.00526115046632   -0.96329562005599   -4.48381585082098
H         4.97375617022357    0.07962491229779   -3.41516145239420
H         3.53889995695718    0.70832584228580   -4.27034809704993
H         3.31959543001786   -1.60595420747161   -2.32484195688020
H         2.01177646366589   -0.53969761626735   -2.73229576688759
H         5.00075211784137    1.25353975770189   -0.58719947770455
H         1.50293643345013    1.37410958414429   -1.44642788853792
H         3.65263992920372    2.63671797524544   -3.17120722402507
H         2.34894732993470    4.76572920238603   -2.48969161594414
H         2.61437324197297    4.68039268198960    0.04557369316611
H         0.05216892234363    3.20535782385768   -0.97063607696029
H         0.32238634238472    5.00092063788680   -1.01971968929347
H         0.30488385983228    4.16873131235646    0.52536624540154
H         1.90993218286309    2.02139638177133    0.61013792100562
H         6.01224290035280    3.54655538627425    1.29846107848708
H         0.02107516279998    2.20117453158970   -5.32495272523557
H         4.71538106631933   -0.50228518973952    1.01308609263018
H         4.52699575531675   -1.69182811818556   -0.20482182915541
H         3.54709556812196   -1.77679063844741    1.42368100700587
