36
 energy: -50.518472314044 gnorm: 0.305646317100 xtb: 6.4.1 (79825abcba525fcdf90b791dcacef51065a7a4e7)
C         3.34470983050104   -0.53408724202077   -3.83392105531062
C         3.01710080943357   -0.75978932667573   -2.36518940985413
C         3.36560542760262    0.36724027621228   -1.31902029072991
O         4.77033749678395    0.63656027525756   -1.46494193332243
C         2.44369880483025    1.64750164921748   -1.42107563136294
C         2.71711568722335    2.57539392912410   -2.68200528818368
N         3.00633450669440    3.91528505137141   -2.15950137744230
C         2.32811550828578    4.03660724393986   -0.86046749144936
C         0.84641163694092    4.40583475454812   -0.95392555083372
C         2.47286276979594    2.63518420154320   -0.24321996358054
C         3.77861299014174    2.44557637372040    0.51141030342409
C         4.57327797532805    2.67567307599932    1.51918657325580
C         1.49878868826003    2.47594671425032   -3.58544035621511
C         0.41062984307872    2.55875342086990   -4.29895151530595
C         3.22383731175029   -0.19348862819679    0.13334874290032
C         4.41858445330880   -0.80494809023889    0.80931046342605
O         2.12528371391182   -0.26365825462002    0.70924604173796
H         3.19734700025252   -1.51520549596630   -4.31651004865090
H         4.40918977558037   -0.30176221902059   -3.93940164662857
H         2.77130364845763    0.25764280867797   -4.30916219125374
H         3.61385499550533   -1.61954285599274   -2.02367152035899
H         1.97334265372847   -1.06342163342525   -2.21608037598020
H         4.97433944395962    1.47698101710028   -1.02063018077366
H         1.45059863933034    1.20013821143794   -1.59115820360041
H         3.58909879498328    2.19679163515378   -3.21401546597804
H         2.59019407001626    4.53253640314064   -2.85433062472168
H         2.90441894631524    4.73804705432831   -0.24543668347392
H         0.23033974042186    3.73720471756232   -1.56406164311913
H         0.72736466356711    5.42691810253568   -1.33363337037137
H         0.37995410406823    4.41014980998843    0.03801547714700
H         1.73663123773049    2.48823941496433    0.55410323000899
H         5.45550235634569    2.65536136974555    2.11710530700970
H        -0.39503730641505    2.38439720877938   -4.97442329518062
H         4.52976617940023   -1.74410086238866    0.27013915934521
H         4.26896358339766   -0.97140266986719    1.88089723339197
H         5.34814391879793   -0.24813620227535    0.66176358202236
