36
 energy: -50.514669907706 gnorm: 0.307083672414 xtb: 6.4.1 (79825abcba525fcdf90b791dcacef51065a7a4e7)
C         3.20517328702040   -0.61875418690480   -3.77555691325890
C         3.02705858472546   -0.81367498676898   -2.27698332465109
C         3.36449503388361    0.39554915217578   -1.32302594597479
O         4.75986354172018    0.68996830034312   -1.50568045809399
C         2.39688403815167    1.64154318890811   -1.42609937196477
C         2.78529455539778    2.64826620494297   -2.59286006673203
N         3.03820594958696    3.91363927071185   -1.89512593415285
C         2.20472318551260    3.94334494069428   -0.68408787628960
C         0.72423631100642    4.24846589139053   -0.91981980144901
C         2.44118033452551    2.51586247586906   -0.16225011642058
C         3.75894270674433    2.59729001239723    0.59092542914794
C         4.91168755958666    2.91802778220508    1.10895675870428
C         1.60303866636389    2.66066695446948   -3.54812055819283
C         0.83585936995002    2.62429095931746   -4.60176069034132
C         3.12148199621399   -0.26955450111218    0.07070026185771
C         4.34197059704273   -0.79740417071981    0.77070738278572
O         1.95979031382064   -0.33745465383426    0.50574451033974
H         2.67862064257265   -1.48480905239454   -4.21132319804129
H         4.25330629592921   -0.75510591804604   -4.06023924381255
H         2.70897036837104    0.27723199273197   -4.13953039319860
H         3.77353897535954   -1.55968335117539   -1.96367084229420
H         2.00549095172466   -1.05121535590090   -1.95475463131383
H         5.06109553217184    1.40064133010643   -0.91446147888708
H         1.35416407176700    1.30934461683196   -1.55910023670781
H         3.64777589574255    2.27247709399255   -3.14207546383226
H         2.80438459222226    4.70299008370591   -2.49446944187630
H         2.61159910925477    4.65198726262918    0.04713329068882
H         0.12927121086623    3.46414047963112   -1.39911817951255
H         0.66055799410550    5.12954846081852   -1.56835660990957
H         0.33295154463322    4.44973864947738    0.08413924313181
H         1.66685587303705    2.15884601597955    0.52500149440819
H         5.84083500372529    2.96916282225050    1.62886966108888
H         0.05019598136490    2.27601174852706   -5.23199589587240
H         4.14022623934448   -1.61349659676185    1.46234844624609
H         4.72411747905789   -0.02745375890518    1.44859518284359
H         5.05481630558555   -0.93020755236569   -0.04789180362546
