36
 energy: -50.518879731093 gnorm: 0.302692632567 xtb: 6.4.1 (79825abcba525fcdf90b791dcacef51065a7a4e7)
C         3.49444115456543   -0.36570746137325   -3.80647870443856
C         3.18246647944178   -0.74390131987059   -2.36596387297039
C         3.42492751070447    0.40479755761395   -1.31343140464408
O         4.80375072661291    0.78664939378209   -1.45532677438061
C         2.42137933958071    1.61597402544769   -1.47261353206179
C         2.80192829137080    2.64939237604356   -2.61843789992761
N         2.89363044470826    3.93922844563716   -1.92570439068942
C         2.12935519517353    3.92852792458492   -0.66953642480801
C         0.67248847992542    4.34839093429571   -0.87389920205381
C         2.31999103371944    2.47560141933585   -0.20199459239908
C         3.56934060558292    2.47863212555249    0.66375249510786
C         4.78399731683743    2.47549093457183    1.13772412853371
C         1.66634933469960    2.53846691249104   -3.62270944252865
C         0.55993478717096    2.62036009811912   -4.30768035933649
C         3.21186573135713   -0.26769826562518    0.08164744140947
C         4.40978476859053   -0.85067363305154    0.77688651311334
O         2.02722272984410   -0.47563946299371    0.39274696168304
H         2.99161207023831   -1.13134415901808   -4.42142937826072
H         4.57257293482788   -0.27153054014570   -3.97073825700603
H         2.99265489606203    0.54232784737886   -4.13077439595372
H         3.87292386848889   -1.55832237713830   -2.09779769467949
H         2.15253646403253   -1.07275264940191   -2.17899288955327
H         4.99946409637533    1.48136421856602   -0.80386354301986
H         1.40329891285972    1.23296315476051   -1.65184794666684
H         3.73941398019939    2.49429014723749   -3.15116009962268
H         2.67332723656291    4.67012078457396   -2.59966481705837
H         2.67479070693460    4.56820059367646    0.03454122076538
H         0.22937123084446    3.79842654559756   -1.71059689733591
H         0.70795884286749    5.42106262148767   -1.09543637595357
H         0.03863870614411    4.24547780883220    0.01446536427477
H         1.47146053196813    2.06630682325255    0.35642087221909
H         5.46590453176516    2.73292186132632    1.91552300213602
H        -0.28724520846166    2.52586346448785   -4.94730385205519
H         4.52116551638830   -1.90212820078449    0.51782548281508
H         4.28408229311014   -0.67047428246833    1.84932244436631
H         5.27736376573363   -0.29638600264369    0.40815588548395
