36
 energy: -50.517663014808 gnorm: 0.311108129344 xtb: 6.4.1 (79825abcba525fcdf90b791dcacef51065a7a4e7)
C         3.23495114316229   -0.90345095064364   -3.43194660612768
C         2.77895844612664   -0.88508221587998   -1.98033542523849
C         3.25607085793879    0.38684772307801   -1.17991114248461
O         4.61573210704508    0.63739573244772   -1.57443055426840
C         2.32630495341362    1.64500043486932   -1.40790994232700
C         2.72520192630540    2.48995383201727   -2.69345241272670
N         3.18341072554715    3.77719743531824   -2.15958474000957
C         2.34464134943722    4.05730732511297   -0.98476836327054
C         0.87902343232171    4.39521522559545   -1.26457563343457
C         2.45790647948609    2.69050002234653   -0.28839083969205
C         3.89391034005686    2.61215954952151    0.20370395924783
C         5.04129035309682    2.67195356783203    0.82014025252032
C         1.52335909653792    2.61009781399927   -3.61624415278915
C         0.38293338906400    2.51671702226575   -4.24134736005434
C         3.19710622579469   -0.04743484558365    0.32069298566453
C         4.40954007805495   -0.75233064684947    0.86046489622187
O         2.15406260964825    0.17606962948385    0.95748749455937
H         3.04771859276150   -1.91611375643555   -3.82774830537820
H         4.28235804477004   -0.61974240727655   -3.57570637633144
H         2.66912497549120   -0.21653062544233   -4.05601910290317
H         3.21620563983736   -1.76632757535608   -1.48622241227500
H         1.68555518631212   -0.86885390549320   -1.89054046947324
H         4.97887788476054    1.42948071912593   -1.14308003853215
H         1.30825419452128    1.22206652290915   -1.40480797363882
H         3.53330644935296    2.08752289595813   -3.30316175925973
H         3.06124829037682    4.51736867363870   -2.84819395632514
H         2.85065708990034    4.83563933136582   -0.40119855739698
H         0.37785533231713    3.61691582792214   -1.84934682467554
H         0.84477425570467    5.33185248051845   -1.83246564296013
H         0.34875471535043    4.50231436433654   -0.31121677223405
H         1.71679345223693    2.51353691439768    0.49824087686258
H         6.05990895988243    2.76316389896724    1.12069979146069
H        -0.63501956141947    2.42958169315465   -4.54456510029467
H         5.13582752273855   -1.09260732265379    0.12439878506591
H         4.14196069256649   -1.68306601869345    1.37088107837923
H         4.97880767581614   -0.19206422551672    1.60740953829058
