36
 energy: -50.519446314174 gnorm: 0.305677975643 xtb: 6.4.1 (79825abcba525fcdf90b791dcacef51065a7a4e7)
C         3.37471738831906   -0.43170707449034   -3.76312038751176
C         2.96194023945679   -0.76609002831842   -2.33720144409029
C         3.39043683090563    0.35228399726116   -1.31165220019479
O         4.77788532236674    0.69807270160688   -1.46170362542208
C         2.46556571653047    1.63141432188059   -1.40016966873966
C         2.83806115720845    2.62563314434857   -2.58273490589349
N         2.81133156336003    3.99359986315821   -2.05366150208841
C         2.14810772641833    3.97300131714958   -0.74145002513147
C         0.63858477051282    4.20681056954097   -0.82620499189367
C         2.44615564591292    2.57097827151025   -0.18338942056126
C         3.78659991852245    2.50943714288980    0.53062979134497
C         4.92600263730284    2.91008677158879    1.02184384843353
C         1.80244806585213    2.55515530846235   -3.69311490212695
C         0.80612764643536    2.46585095074914   -4.52942533543378
C         3.15833546333227   -0.29865038740723    0.09059753047027
C         4.32996584174489   -0.94461983203736    0.77487334432080
O         2.04391319365481   -0.18831383545383    0.62845470289693
H         3.30246695927240   -1.33726114564560   -4.38918162223514
H         4.37732129859020    0.00585387906308   -3.80241973257249
H         2.67680479462862    0.27359925148991   -4.20690667034768
H         3.40401003147649   -1.73646796787541   -2.06358289714883
H         1.88516616364873   -0.97058247312872   -2.28623475054444
H         4.95597939899619    1.23399228124793   -0.67024329151226
H         1.42923780763688    1.26800905420033   -1.49645639848053
H         3.85945484598918    2.40279857582705   -2.88904968886580
H         2.39383917012127    4.73458145379516   -2.61366699210619
H         2.59954473209108    4.77525073797409   -0.14562551371232
H         0.09701754535814    3.53715299755192   -1.50232660555679
H         0.36521995446688    5.22141577708434   -1.13734702125242
H         0.16123862464725    4.10242992772490    0.15501546824230
H         1.72932490739435    2.38117713698496    0.62251574378235
H         5.79883875739857    2.77151981802753    1.61782668398881
H         0.00015407918890    2.44408547232801   -5.22634328852130
H         4.72883943935559   -0.32890213558439    1.57915349720834
H         5.07790173617816   -1.24288789905231    0.03324014687431
H         3.98828031952538   -1.80066624916371    1.36336794834460
