36
 energy: -50.516282000319 gnorm: 0.301072359799 xtb: 6.4.1 (79825abcba525fcdf90b791dcacef51065a7a4e7)
C         3.41796776872223   -0.74908943885326   -3.67896037792863
C         2.98847636504424   -0.79637488546581   -2.21993913597801
C         3.34293618987944    0.41918965781290   -1.28032106332906
O         4.73094963110385    0.64224193851885   -1.58159326956613
C         2.37610918239141    1.66179386145162   -1.42376664619381
C         2.69079297791118    2.57842673030188   -2.68330733682557
N         2.79174646255798    3.96032154165199   -2.20149698490072
C         2.30437775497532    4.01206380275728   -0.81514075254369
C         0.81787652629386    4.36841681430082   -0.75320240274940
C         2.51486554072092    2.60907091712570   -0.22080189486097
C         3.85006638376435    2.55784630274577    0.50377820444354
C         4.93707745872312    2.93956807367545    1.11430692829586
C         1.67638243799595    2.52317038287941   -3.81393696599541
C         0.51803828136103    2.62595088694654   -4.40361466973483
C         3.16410700037522   -0.21488664172285    0.13737364928876
C         4.33086910357204   -0.86593210655947    0.82514807413235
O         2.03905893748623   -0.25254378131439    0.66296882346271
H         2.80786258553868   -1.48899550944258   -4.22440665633664
H         4.46496858965704   -1.04811439945660   -3.79117437624714
H         3.32523140156198    0.24522817230533   -4.10816629437188
H         3.43695172730915   -1.72905548112627   -1.84456876878281
H         1.89730953762030   -0.88779868300603   -2.15026973583485
H         5.02366846050906    1.36991292711220   -1.00700874874348
H         1.31801790388805    1.36230939553458   -1.34590808523045
H         3.63554716906364    2.23747577805124   -3.10511421018332
H         2.26835341794815    4.64481404614525   -2.74416585517408
H         2.91388400647491    4.76622569254306   -0.30313652760891
H         0.32715981242441    3.75016369841967   -1.51204161829981
H         0.57915069492727    5.42190014765515   -0.93798405004728
H         0.36762407324301    4.01723716329095    0.18247587281972
H         1.72541977088337    2.39251522326590    0.50668207216587
H         5.91569724876786    2.96467722681801    1.53610315514054
H        -0.29584569883087    2.51438799509221   -5.08251699779731
H         5.20057648198277   -0.96752070978612    0.17833757202360
H         3.98575261537777   -1.85977941324088    1.12772680054754
H         4.63874584942591   -0.30345060147036    1.71099051565601
