36
 energy: -50.518317644674 gnorm: 0.304020357333 xtb: 6.4.1 (79825abcba525fcdf90b791dcacef51065a7a4e7)
C         3.05141094782595   -0.56127846904863   -3.61962954741600
C         3.07747453151429   -0.84841010621597   -2.12553521257070
C         3.44774198266004    0.39590241778768   -1.23071153959633
O         4.75442607773934    0.90776519948529   -1.54323631294392
C         2.40638002229208    1.56335743364118   -1.45876934299093
C         2.76203208330251    2.44446149981015   -2.73268130233123
N         3.04564417348434    3.77997449395272   -2.19608527927083
C         2.32577232379482    3.94019561077272   -0.92395996634613
C         0.85931332049256    4.35425903812226   -1.06019203318231
C         2.38380242259363    2.54608817127267   -0.27663489948282
C         3.54468159002611    2.50948325668904    0.70388595549874
C         4.71076860297720    2.63643433678550    1.27324908245048
C         1.57280901351350    2.45379726427425   -3.67928927622250
C         0.56004611092022    2.82496527193788   -4.41181258095876
C         3.26895657617201   -0.17679343968793    0.21287640328779
C         4.48058491606139   -0.81254963866181    0.83416416083780
O         2.12561457981994   -0.32824784609683    0.67464704322492
H         2.90083187565806   -1.44876770622889   -4.25750866254062
H         3.96608486598586   -0.03289279792251   -3.90668151893189
H         2.20181228387415    0.10379092317922   -3.75134926128924
H         3.85522689905662   -1.58860225141229   -1.88234186325308
H         2.10234037956603   -1.26901929772337   -1.84974821486053
H         4.87624742065550    1.77973189960949   -1.13071918265118
H         1.42769031562931    1.06602569210192   -1.55945519493184
H         3.64805163378412    2.16534712308758   -3.30170992425107
H         3.20336170765094    4.62395871729055   -2.74360291406547
H         2.92433432792461    4.64569721625158   -0.33540465676450
H         0.22086815459052    3.57532717164025   -1.48976120414211
H         0.79232282696025    5.24381361976130   -1.69671880413087
H         0.38260060279486    4.63207554633867   -0.11303247972357
H         1.53645712517198    2.30466757958646    0.37380798325459
H         5.42069581743743    2.55692153707391    2.06440030877950
H        -0.17901957309205    2.95212352771340   -5.16902751332162
H         4.83318627009168   -1.70794372869829    0.32522732610687
H         4.23025627243025   -1.03766169652522    1.87582239383793
H         5.29933595966392   -0.09121521321461    0.76195792660341
