36
 energy: -50.514257156408 gnorm: 0.301372975877 xtb: 6.4.1 (79825abcba525fcdf90b791dcacef51065a7a4e7)
C         3.55983528000680   -0.48684375991461   -3.70661979368458
C         2.95810404957454   -0.59746885713222   -2.31337775251008
C         3.44105710318098    0.43291969927830   -1.22196727216662
O         4.85545992271722    0.62519336720337   -1.39399652199203
C         2.50695155682227    1.69843785748706   -1.38104882174443
C         2.71764488897417    2.55882771292199   -2.70052678393552
N         2.81112207607731    3.96060994330259   -2.27834826980117
C         2.30590725268508    4.05596764618423   -0.90072204352390
C         0.78454159676888    4.21526165036131   -0.87660348492284
C         2.54141580211098    2.69954599865020   -0.21472723542383
C         3.88813797114375    2.79796447245879    0.48316586584882
C         5.12656458050135    2.65211496395897    0.86405609516149
C         1.54885378713469    2.40457174020635   -3.65997341984226
C         0.31234158346003    2.46656792375282   -4.06892191572760
C         3.08138181434207   -0.26749566273350    0.12856704224003
C         4.17899678595312   -1.01362156631539    0.83338274228921
O         1.93011308636846   -0.20770602988416    0.59160807737958
H         3.40720113828024   -1.41026205229508   -4.29074516202023
H         4.61102893370032   -0.25850064245974   -3.50396255993284
H         3.12474735604635    0.32501131340708   -4.28374638777064
H         3.22251029914027   -1.57406228889352   -1.87946442901074
H         1.86575989966611   -0.62692494631733   -2.41224015632046
H         5.26396509798802    1.27533614525637   -0.79752805390739
H         1.49425007082834    1.26289043456628   -1.37439955392162
H         3.64578508111832    2.20322304506866   -3.14643056274255
H         2.28572421929025    4.54975421529747   -2.92164127866078
H         2.77788189223106    4.86126015727990   -0.32526546802880
H         0.27954929070763    3.25506120430772   -1.02450425992016
H         0.42916920911135    4.90340403903816   -1.65193047129809
H         0.47138708007114    4.59161696314046    0.10413051808884
H         1.81465044560558    2.54350700701701    0.58952263793972
H         5.96878426025412    2.84575310543357    1.48808294150084
H        -0.60124839697875    2.27271160516251   -4.58227838764041
H         4.53940190202282   -0.44442062260482    1.68848123568156
H         4.95195852744548   -1.16481277859268    0.07307812607786
H         3.78803504826216   -1.96304128224725    1.20973562062012
