36
 energy: -50.505866485914 gnorm: 0.313747409372 xtb: 6.4.1 (79825abcba525fcdf90b791dcacef51065a7a4e7)
C         2.05566058159731   -0.93246081647045   -3.42761726349522
C         2.26803422841576   -0.81974370191554   -1.92507472812351
C         3.24707911277956    0.37168864322289   -1.59631773954857
O         4.26559762562352    0.57058717954625   -2.59138457387712
C         2.39628013396034    1.70207590928331   -1.52143675335269
C         3.21360751128783    2.97424742691396   -2.01055850507331
N         2.75380120040381    4.16747303185763   -1.29170044224785
C         1.66150047447280    3.70170434633132   -0.42444743503745
C         0.27954347856966    3.93860024213425   -1.03648086387467
C         1.97002594357311    2.22211886709792   -0.13883991395865
C         2.97652823501495    2.10894125547913    0.99453800609541
C         3.88186859825716    2.28705826689642    1.91577795068467
C         3.02845300255519    3.20841230061330   -3.50095778368226
C         3.02264425798937    3.18184408385742   -4.80453179576177
C         3.88572770872540   -0.00185990059577   -0.21919014942652
C         5.37903155897598    0.01529913258154   -0.05192734913170
O         3.11466061960544   -0.45900193855424    0.64097157792006
H         1.27481957039551   -1.67235294325890   -3.67266405190617
H         3.03778022639074   -1.16215877556843   -3.85293888791214
H         1.74020868728322    0.03561681712805   -3.80814461907634
H         2.69679805882465   -1.76810252027508   -1.56632231432532
H         1.35055870887627   -0.65790363909755   -1.34550277351581
H         4.85231911219886   -0.20410633918973   -2.62211893959058
H         1.53735476341074    1.50785708747707   -2.18463832220236
H         4.27847438087002    2.76559226857419   -1.91437816595506
H         2.35134742978227    4.84558390165234   -1.93602674729910
H         1.62787904685099    4.24639856476874    0.52664886001255
H         0.09947953631222    3.38721666494713   -1.96515189618555
H         0.18855575367966    4.99528271107512   -1.31235186083620
H        -0.52189972629997    3.72279476992518   -0.32047455118637
H         1.14934813948521    1.57611972546660    0.19059438590135
H         4.56864863331435    2.15977320288301    2.72099276796573
H         2.82423609124895    3.19497442067364   -5.85153875809404
H         5.80697971797067    0.73717922804611   -0.74534244683422
H         5.72003663655881   -1.01407080832487   -0.20194337686458
H         5.63608747594411    0.22656127200621    0.98979282942469
