36
 energy: -50.515210281800 gnorm: 0.305584591111 xtb: 6.4.1 (79825abcba525fcdf90b791dcacef51065a7a4e7)
C         2.86847161848913   -0.50507369785540   -3.68248688862893
C         2.76473153534347   -0.82633107779732   -2.19875056647879
C         3.28855496364941    0.32874778060665   -1.26198863004708
O         4.65531824828563    0.57949764052007   -1.63101605800596
C         2.44763301086116    1.65893360701374   -1.41315841394376
C         2.89688739085258    2.58422000747565   -2.62464515256163
N         2.92172268861307    3.95639525123146   -2.10649031334022
C         2.20981701859979    4.00672606950359   -0.82085962709889
C         0.70777309469163    4.13492085675415   -1.08151242975520
C         2.50934345368689    2.62379360233711   -0.21777212771226
C         3.82225685457370    2.63418336123195    0.54809470645652
C         4.95053398384827    2.64888115219955    1.20141284572977
C         1.87229872604707    2.38407046560485   -3.72943638898502
C         0.85284206140107    2.67754128462484   -4.48747850744209
C         3.30374586678619   -0.14918400569861    0.22638007733985
C         4.54961997005457   -0.77851125566186    0.78313191707275
O         2.28732885065350   -0.02117570198035    0.92916868483691
H         2.56325122096820   -1.38080240436078   -4.28009940060893
H         3.92187729843456   -0.28125826220149   -3.87860357949145
H         2.29621875160274    0.36768977602690   -3.98628919977083
H         3.34365778740356   -1.72609161324715   -1.93951796671247
H         1.70339970686144   -0.91582116679500   -1.93526724265653
H         5.09985064989107    1.28645118684705   -1.13307592206234
H         1.36947813393723    1.47839581588390   -1.55563032725071
H         3.84981748804198    2.20373061719401   -2.99054288731171
H         2.46877468774454    4.64030091994402   -2.70987321475411
H         2.53988625562293    4.85925049977676   -0.21533279199040
H         0.40399916325287    3.32925385760113   -1.75789904192960
H         0.41013009759419    5.04283048651364   -1.61823411316235
H         0.11486852784009    3.95150842425528   -0.17797919348847
H         1.70690856523942    2.40082587356097    0.49338014967159
H         5.79059704879457    2.40414309677991    1.81021210607030
H        -0.00879940224857    2.64115070352630   -5.11358674415922
H         4.89133362178866   -0.21550927333438    1.64992805688146
H         5.36766323260948   -0.92054831285601    0.06967383254278
H         4.21349254346121   -1.68453932539852    1.29501262823983
