36
 energy: -50.501056169374 gnorm: 0.307724195759 xtb: 6.4.1 (79825abcba525fcdf90b791dcacef51065a7a4e7)
C         1.40439352966698   -0.75057439926150   -2.86338364594309
C         2.19898451544266   -0.91157939259041   -1.57569410844004
C         3.31524966268550    0.20103724037983   -1.52924602704384
O         4.14218582265974    0.13225841956313   -2.70336044495320
C         2.56382640411088    1.59190440709048   -1.54499248095016
C         3.42396689793746    2.89614052992585   -1.83621571424701
N         2.80990112338768    4.02588256716915   -1.13011922130346
C         1.53632066951930    3.53939401124217   -0.57920103361967
C         0.32003760636814    3.82416422685492   -1.46241741745685
C         1.73864883483748    2.03575912101721   -0.32606412665989
C         2.38538138868642    2.06314444119099    1.04921353906539
C         3.25808423521807    2.51926065114348    1.90384661135943
C         3.47166251500799    3.06026898178325   -3.34657738339177
C         3.45924325305962    3.48118776070739   -4.58056197374366
C         4.22972559820822   -0.02373215939038   -0.28140652865168
C         5.69374246718999    0.16586024068938   -0.56236381870247
O         3.78539871262060   -0.43605889458984    0.80301118168193
H         0.93540191521782   -1.72167952844916   -3.09619831000127
H         2.12863037338954   -0.48117560457700   -3.63870546101950
H         0.66499328449833    0.03918628136886   -2.75826173442765
H         2.72717141205745   -1.87636736890458   -1.62183444829202
H         1.51339703192508   -0.89324550418102   -0.71925330380729
H         4.12956378291670    0.99629337160906   -3.14902965069824
H         1.83735839818573    1.53728689618392   -2.37238068549151
H         4.40644560752148    2.72562083293628   -1.39759549307793
H         2.71152854090960    4.84851595768739   -1.72219769144595
H         1.35309790362954    4.13349606582959    0.32405891443106
H         0.61625609298248    3.67679987913826   -2.50616792567843
H         0.07701470032206    4.88179886795084   -1.30974046364903
H        -0.51219628185728    3.15828861152200   -1.20640046935742
H         0.79154556006795    1.48714665128133   -0.36312722642164
H         3.80119537328283    2.82511797460474    2.76855513206705
H         3.46236467594600    3.83926022015761   -5.58432297930779
H         5.80498429869638    1.24850795581192   -0.53840172709221
H         5.83993992764042   -0.24782931831951   -1.56529901122897
H         6.34551977559099   -0.29969737121719    0.18217148267746
