36
 energy: -50.517127353784 gnorm: 0.300861257154 xtb: 6.4.1 (79825abcba525fcdf90b791dcacef51065a7a4e7)
C         3.39675365174386   -0.22709717144117   -3.79638541987928
C         3.04564094596630   -0.61372174872942   -2.36716077822275
C         3.40825287099387    0.46110872042473   -1.27200182940291
O         4.78175439915562    0.84540991104410   -1.45339846007380
C         2.40169023717464    1.68001651539525   -1.24982529378383
C         2.78500224458576    2.68095374043670   -2.42323105030319
N         2.86818332473827    4.01013924328207   -1.80815959996986
C         2.04207905407790    3.93974900754428   -0.59375189573283
C         0.57415951057711    4.05122828848473   -1.01003823475895
C         2.33999553785781    2.55729959835301    0.01123755104056
C         3.66566073609240    2.59682496379408    0.75383508507003
C         4.94462410197541    2.75643428280953    0.95088199067808
C         1.83452458359895    2.38898995280822   -3.57290696881026
C         0.95890016104403    2.53938216310807   -4.52721764028433
C         3.17056003763418   -0.30408079517708    0.07033869651271
C         4.30687305843254   -1.15404542247166    0.56488953754700
O         2.02372987708085   -0.33288384115410    0.54715361996291
H         3.43080613787920   -1.14715072833073   -4.40428578301005
H         4.40479894893376    0.18477949639375   -3.90783458931083
H         2.75261528860957    0.57255998954971   -4.15292358213614
H         3.60299574650632   -1.52407915073001   -2.09784462243143
H         1.97549642848359   -0.84486828925479   -2.29491695294423
H         4.94684057833353    1.63815282715538   -0.91521449879649
H         1.43753222995593    1.19635031075272   -1.47736959265652
H         3.78290155520120    2.50097312099900   -2.82139309761730
H         2.58131238977071    4.78817743592912   -2.39919378283440
H         2.30278586783285    4.69616065734116    0.15610124206136
H         0.34893676842819    3.24496515730661   -1.71579402991789
H         0.31504886142349    5.00170706612034   -1.49005196228556
H        -0.03355526557721    3.94768423877755   -0.10366654718978
H         1.54314667719691    2.22264785814302    0.68383996887941
H         5.92198285637450    2.77928486143995    1.37571952708612
H         0.39596078785901    2.47121488547453   -5.42955585682225
H         5.17652803727874   -0.60904693862698    0.20191312579412
H         4.24213770385066   -2.12317030446472    0.05991622566326
H         4.16407633162577   -1.31058325862134    1.63773406100018
