36
 energy: -50.518894473613 gnorm: 0.309459321985 xtb: 6.4.1 (79825abcba525fcdf90b791dcacef51065a7a4e7)
C         2.75538330153262   -0.65947381358504   -3.53027044844821
C         2.86951981475221   -0.91573338782881   -2.03469508512559
C         3.35407326448531    0.33683662389911   -1.20862160284200
O         4.72427613776681    0.54811892993333   -1.58941350063655
C         2.45311408366529    1.62576668464175   -1.37088130432442
C         2.84720122597271    2.50427643641792   -2.63523902664096
N         2.99661742951301    3.87121763053133   -2.12424716524011
C         2.16673850829750    3.92762373964892   -0.91168440019247
C         0.66224759141858    4.13071948276839   -1.10081115317443
C         2.59056972981128    2.62555262557313   -0.21103416767127
C         3.98562396216385    2.77788167412508    0.37293598593046
C         5.23615489073378    3.04449261350501    0.62816317431224
C         1.73430807032970    2.42047511927850   -3.66715547831786
C         0.78794356053675    2.58658118903027   -4.54854518237440
C         3.19022175028892   -0.11845553437554    0.27790209114336
C         4.29758377055071   -0.86821555389121    0.96334861676934
O         2.14332809678028    0.18960777536344    0.87162944986701
H         2.60688682820728   -1.63125822962699   -4.03105465285882
H         3.63510398707928   -0.14099106289965   -3.92458730443253
H         1.88507726641596   -0.03038255263648   -3.69848715682740
H         3.69061249930794   -1.61975230817250   -1.82953579347372
H         1.95935482277044   -1.34197234456168   -1.59449374380561
H         5.17134213325749    1.24585936597270   -1.08085963894441
H         1.39115351538803    1.33896991406419   -1.44366478609454
H         3.79414310802314    2.21492183628397   -3.08944609871477
H         2.75986790917303    4.57115207544017   -2.82496195273280
H         2.49528326064539    4.79623203468699   -0.32860264169208
H         0.17594527928294    3.20345582457984   -1.42107499820877
H         0.47588831297103    4.91734472693792   -1.84071138914640
H         0.17621755890997    4.44871859693760   -0.17118777581722
H         2.06517036879759    2.40218002278546    0.72353210220611
H         6.16711833247452    3.21034373454583    1.12013847800666
H         0.12049153221152    2.74137208500691   -5.36482292730995
H         3.92798866113479   -1.53843837780539    1.73747768737395
H         4.97890140070990   -0.20757877322681    1.50901983117908
H         4.94954537281861   -1.50476055874428    0.35866118719114
