36
 energy: -50.516552588915 gnorm: 0.305801394501 xtb: 6.4.1 (79825abcba525fcdf90b791dcacef51065a7a4e7)
C         3.38013716654889   -0.28449533518681   -3.81658888458416
C         3.19615896979631   -0.67777303917709   -2.35819029375074
C         3.45573965601753    0.48224400416709   -1.32228518098545
O         4.79577365904943    0.98764698185807   -1.44867860605223
C         2.42380015412783    1.67929061843069   -1.36199179787744
C         2.80018745480190    2.75861969603202   -2.46610493642339
N         2.74937994224715    4.05565180780547   -1.78266336501500
C         1.97171004128815    3.97660845453190   -0.53720329374969
C         0.46919007048087    4.24927758959463   -0.62991253408048
C         2.24223730326618    2.52887941321885   -0.09354977411540
C         3.51712651881318    2.34949783900421    0.71446095351342
C         4.72751319430564    2.51528909674153    1.17001257540843
C         1.86315246336987    2.72797431139350   -3.66252945552887
C         1.21805443201307    2.50028055830451   -4.77250642180853
C         3.20023571719108   -0.34094802551838   -0.01807523117472
C         4.39957529009679   -1.11940639005473    0.44432594723147
O         2.03380783793017   -0.51898258924592    0.37070645896494
H         3.04500813313843   -1.06311630328922   -4.52273255979616
H         4.43663127906478   -0.03803490539206   -3.96252064270440
H         2.76000269172745    0.57967947072493   -4.04046476039307
H         3.78910362750205   -1.53960100224690   -2.01526849573107
H         2.13121598983059   -0.89507552071654   -2.20807943186790
H         4.94602122062408    1.65521873284600   -0.75794683388703
H         1.45441130614760    1.20201918805622   -1.58064064134079
H         3.82545508311042    2.57527307100156   -2.78538439307046
H         2.50265147597159    4.81935843167709   -2.40943048692808
H         2.42625041099430    4.67741928488656    0.17319348661923
H        -0.01959443268939    3.36426867799633   -1.05030008986404
H         0.24744908635793    5.12787348166801   -1.24624167228513
H         0.13902628533734    4.40453597938651    0.40373874317409
H         1.40445909190447    2.16624155944617    0.51140920946503
H         5.60530574400618    2.50713171447815    1.77470499689005
H         0.79767739012667    2.31090099456662   -5.73332913755514
H         4.15455440529092   -2.18006730549473    0.43814611556138
H         4.73453654334741   -0.96751728152410    1.47540421848713
H         5.26152969557083   -0.98154850776224   -0.21440022986096
