36
 energy: -50.521421078903 gnorm: 0.306033631966 xtb: 6.4.1 (79825abcba525fcdf90b791dcacef51065a7a4e7)
C         2.96645026149583   -0.67056053189797   -3.60848789301914
C         2.80271164718153   -0.82574241082510   -2.10364570330246
C         3.31948678414846    0.32220878643429   -1.15429194194207
O         4.67790435444669    0.59083369091643   -1.54112645610277
C         2.41422667622775    1.61056842909414   -1.29581889943061
C         2.71207665069489    2.46285661077224   -2.60370830559316
N         2.81985390903254    3.86567595061232   -2.18843965993022
C         2.25354166119111    4.04578502537754   -0.84343397953043
C         0.76409023585853    4.38498898441559   -0.92700935783589
C         2.60587840310154    2.68687311111651   -0.21482437217130
C         4.02800025915244    2.78953566532416    0.31189316545225
C         5.23827920956542    2.92531448379616    0.77755276155477
C         1.68622192650137    2.37870718779851   -3.72216540674051
C         0.75155460700370    2.58083015217090   -4.60849948147145
C         3.17826163633648   -0.29335337684716    0.27575337327225
C         4.46506736363283   -0.74665718089012    0.90573301332762
O         2.07907194682866   -0.41485030483508    0.84181167854069
H         2.53889872326582   -1.53828344237020   -4.13901367186825
H         4.01879230946731   -0.59301097649265   -3.89965950534810
H         2.48219770195775    0.21871278891725   -4.00368111770998
H         3.37255869140368   -1.71725950435966   -1.79967566550529
H         1.72866398950904   -0.94307344101758   -1.91256393977687
H         5.02387770923981    1.31672100780280   -0.99456740908230
H         1.38887783480928    1.20699069090913   -1.26273089843103
H         3.70539777258760    2.22267567090746   -2.98100835448843
H         2.43399068361855    4.50700530504997   -2.87892210033139
H         2.71715764996958    4.91735674102003   -0.36611929659345
H         0.23343409199287    3.44770283498860   -1.12392429444867
H         0.51965826295494    5.00891742842356   -1.79414701608634
H         0.31786561065112    4.88509980830946   -0.05964496054035
H         1.91875219146853    2.49227591083184    0.61544269516112
H         6.15158317348584    3.10593082665256    1.29667972854444
H        -0.04765927681437    2.62764252236797   -5.31193926794590
H         5.03115515232446    0.17658156438764    1.01641199023304
H         4.94783181202720   -1.44260288631768    0.21219872579456
H         4.23834563714882   -1.25737851629353    1.84576032387088
