36
 energy: -50.517439317634 gnorm: 0.299680301421 xtb: 6.4.1 (79825abcba525fcdf90b791dcacef51065a7a4e7)
C         3.07889105239779   -0.74120403491387   -3.64036946414210
C         2.81120528060657   -0.85038997071525   -2.14642685127392
C         3.25910971762033    0.35031314900336   -1.22783298032767
O         4.61982055000824    0.60911471874449   -1.61330201095894
C         2.35524110933448    1.63876471966697   -1.37719976985985
C         2.71220371780418    2.41952270497893   -2.71461487877709
N         2.80929666962112    3.82618545015502   -2.30984459026171
C         2.39384912496099    4.04637451133997   -0.91660762779503
C         0.98358978270547    4.63797939610435   -0.87559578935279
C         2.51333691506884    2.66745801849098   -0.24560480431014
C         3.82070133980181    2.55445280259513    0.52148687520938
C         5.03173324068166    2.70780929650655    0.97967179835394
C         1.61696918215032    2.18660354715473   -3.74253285936297
C         0.60716357539265    2.30941189780897   -4.55816487045872
C         3.21705454741376   -0.11445493570605    0.26418341751322
C         4.48541144553963   -0.53468599278073    0.95186380408253
O         2.18443877788476   -0.18562100108425    0.95123622120002
H         2.56340955909021   -1.61674108266904   -4.07038653494927
H         4.12828095951517   -0.82103519972821   -3.94141171220968
H         2.60800398985807    0.14336359795034   -4.06142853919327
H         3.38799721275291   -1.70385603956715   -1.75805473039004
H         1.75524354093909   -1.08532342682600   -1.96310130799755
H         4.81245561650938    1.43997462013472   -1.14650407373073
H         1.29125506057516    1.35394575157235   -1.42326399252321
H         3.69268988301148    2.09062175348071   -3.05695992045255
H         2.35304234872013    4.46537603726602   -2.95809389491756
H         3.04496664446611    4.73237907212371   -0.36176524233684
H         0.31224026534154    4.10537199707623   -1.55713518290884
H         1.03313374782607    5.68693120281298   -1.18897561718582
H         0.59942444681910    4.55657592011515    0.14779989260723
H         1.70590378839528    2.50096880798822    0.47528839561417
H         5.93204830745248    2.85160939290980    1.53193398723928
H         0.02525184232568    2.12152108906017   -5.43099794348998
H         4.12265241430056   -0.97884224200076    1.87717786752906
H         5.14665645112066    0.32624398445525    1.09309539514251
H         4.95353201950592   -1.25760080204596    0.27795900503113
