36
 energy: -50.514195283031 gnorm: 0.303324396211 xtb: 6.4.1 (79825abcba525fcdf90b791dcacef51065a7a4e7)
C         3.16320872166036   -0.53245777797940   -3.76708598832343
C         3.14158877554036   -0.78806892819297   -2.26720690119554
C         3.37581163703175    0.38099009647155   -1.23543090745634
O         4.73892302527360    0.76637037480477   -1.48141460695937
C         2.40830725052628    1.61829548154871   -1.41545030778837
C         2.76023530335275    2.57141892702213   -2.63749238892202
N         2.93596843716644    3.88110148514708   -2.00045583386367
C         2.15498900659903    3.96293656679591   -0.75724898176273
C         0.65511541708877    4.23668064062560   -0.88355467676360
C         2.36686760251056    2.54824051621666   -0.19185055706757
C         3.66649704028884    2.45444700081888    0.59081648973327
C         4.78499470986175    2.76649859306361    1.18380612002234
C         1.62227926907328    2.54483231252632   -3.64484268549634
C         0.90645069521598    2.85998749606839   -4.68806437942201
C         3.22575654270042   -0.23482976144050    0.19360384208328
C         4.46937613680107   -0.78787077730379    0.83061531178040
O         2.06964031644718   -0.44274162679551    0.59804101066402
H         3.01646056872255   -1.45574853563271   -4.35291883452356
H         4.17122981119743   -0.25850922210986   -4.09429280039249
H         2.48818362190364    0.22247725405150   -4.16192706121029
H         3.93452819245056   -1.52695213693857   -2.07426948502782
H         2.20669187205605   -1.28340943692917   -1.97658216297491
H         4.76851771415860    1.57436943888771   -0.94141606372707
H         1.38329101569889    1.24058304492902   -1.56372405813142
H         3.66914749029185    2.23343366523051   -3.13385282264892
H         2.84774855859202    4.60118880206231   -2.71505452119528
H         2.64200062191982    4.77866311919885   -0.20969420543595
H         0.35434018431562    3.54978092385201   -1.68141419037040
H         0.51596570507081    5.29529247638933   -1.13041446376694
H         0.14153074021910    3.95177433714939    0.04197621561623
H         1.66846236031303    2.29040716907597    0.61133435689750
H         5.60647253266918    2.64867923202321    1.85278445892521
H        -0.04033785560611    2.90376476821310   -5.17533924122966
H         5.04439562947979    0.09247516051821    1.11242839584733
H         5.01196374795709   -1.35063394236119    0.06426809825289
H         4.13225896537745   -1.35930795667378    1.69992649465831
