36
 energy: -50.521480898096 gnorm: 0.304721834832 xtb: 6.4.1 (79825abcba525fcdf90b791dcacef51065a7a4e7)
C         2.69072320854320   -0.66894630360079   -3.47843258119505
C         3.01635755166692   -0.90385060813853   -2.01070508130791
C         3.39715920643204    0.41480575779106   -1.23465318489564
O         4.73736809462378    0.74617261062227   -1.63606909166896
C         2.40392520668647    1.62785826202194   -1.43808912645150
C         2.72794693664109    2.44209063724003   -2.76387947141568
N         3.12124234915585    3.75738796291079   -2.24689035570105
C         2.43635549852699    4.02258018613532   -0.97300173932412
C         0.96571825628492    4.37913147905124   -1.19796174756474
C         2.53429971664914    2.64609236373880   -0.29357475275079
C         3.89052793028827    2.51239795543034    0.37960606731564
C         4.94567787393936    2.73408531960504    1.11279309358961
C         1.48315206564664    2.46498266745294   -3.63586974260037
C         0.37493607057417    2.29314990209128   -4.30098296119951
C         3.24767050050440    0.01131404881788    0.26825683039324
C         4.42460007669724   -0.63160353947320    0.94628442425415
O         2.14594168367509   -0.01927602603438    0.84154502753657
H         2.71132363359411   -1.65363277769184   -3.97559366397321
H         3.44764066631554   -0.08527746562348   -4.01193541807517
H         1.71240036313217   -0.22276682388212   -3.63747203621483
H         3.91847450678300   -1.52634761941709   -1.90770685759138
H         2.18014212093129   -1.40292249311029   -1.50520712507827
H         5.00499007932838    1.49948728666952   -1.08268656033849
H         1.40246605791566    1.16800488603354   -1.46849484135815
H         3.52440890536745    1.88442732070091   -3.25519303784522
H         2.99615908841267    4.48560219234873   -2.94761710948107
H         2.90434356803434    4.83020897912981   -0.39756342936516
H         0.38601165440042    3.57870971102265   -1.66928118111304
H         0.99078351173169    5.26203569482059   -1.84666298519593
H         0.51787923942003    4.67417431465264   -0.24196060004790
H         1.82817073259984    2.53206575841123    0.53572235947530
H         5.83458588675903    2.72166478050225    1.70094910300982
H        -0.31105803781642    2.43872604825405   -5.10346750497759
H         4.92976918352356    0.02606180933437    1.65151875216513
H         5.07317536966547   -0.97314346935953    0.13320858895808
H         4.05116112618335   -1.49683008805381    1.50109676908873
