36
 energy: -50.514383503573 gnorm: 0.308938655133 xtb: 6.4.1 (79825abcba525fcdf90b791dcacef51065a7a4e7)
C         3.70677751929083   -0.62946492430921   -3.71577964249912
C         2.99808271692326   -0.68074302571418   -2.37020763929188
C         3.37586382050641    0.46233608843472   -1.35198729467541
O         4.71837181853476    0.96399468293943   -1.46648421062699
C         2.37346330531779    1.68390861344013   -1.40046579374306
C         2.79666725150382    2.74337964256315   -2.50685817185019
N         2.82795135989466    4.01594289239260   -1.77776956260751
C         2.02483701468229    3.90928854193834   -0.55065044290757
C         0.54489089401372    4.12671605744173   -0.87157799122618
C         2.37045817687513    2.48381346242219   -0.08750936916776
C         3.69066964609515    2.61762145007334    0.65379938854043
C         4.80596274434961    2.83587607211272    1.29296769096294
C         1.74260225404767    2.66519770804546   -3.59921342140583
C         0.87715074153878    2.95712969522137   -4.52970481879628
C         3.18138219347281   -0.31473463260062   -0.00951607139048
C         4.31479550832929   -1.24610203588501    0.31630093477046
O         2.10616323675756   -0.45709913031050    0.59632058811056
H         3.84994737975744   -1.58063281084684   -4.25613416822800
H         4.68954033696387   -0.19237751012605   -3.51243149527402
H         3.21710828496647    0.07487269868093   -4.38332576341314
H         3.16478733656544   -1.66364130990789   -1.90325293085714
H         1.92159375191549   -0.57107549201882   -2.55187142374324
H         5.00535263800517    1.54883809864629   -0.74472459646546
H         1.32638284758012    1.35107446694715   -1.49076545236798
H         3.75798563387945    2.48090857305463   -2.94697746736806
H         2.65859801939603    4.84864218479858   -2.33892115554183
H         2.34780931122962    4.60530738787827    0.23270964210690
H         0.20892031393477    3.42873932808427   -1.64541842528035
H         0.30400096644979    5.13638582903935   -1.22300424182849
H        -0.08167113617947    3.92474831101562    0.00487925626969
H         1.61243317732940    2.08235042437410    0.59335731879931
H         5.76498760715336    2.99051602309299    1.73182645111020
H         0.10771703160329    2.84567016469424   -5.25861519784992
H         5.08423924423118   -1.09360359640869   -0.43853386075210
H         3.91693959780716   -2.26526024094281    0.27863156594723
H         4.71388430290989   -1.04774741675012    1.31493698074485
