36
 energy: -50.522179662202 gnorm: 0.312287607046 xtb: 6.4.1 (79825abcba525fcdf90b791dcacef51065a7a4e7)
C         3.18776461490892   -0.43803598579424   -3.71054924000533
C         2.92327473077465   -0.78539746110553   -2.25287064996085
C         3.35307993126237    0.35516506668792   -1.25261785468608
O         4.72792952174644    0.66520341796198   -1.53680686135958
C         2.38077104898355    1.58809029261184   -1.43675674388188
C         2.80042595093576    2.54344229006162   -2.63545469995206
N         3.09444016287754    3.85799424427181   -2.05452882638198
C         2.30422924452523    3.96694626582811   -0.81926153415320
C         0.85158712877256    4.35074655689704   -1.10742459477843
C         2.37629471208781    2.54616568086948   -0.23434963428794
C         3.71273751937531    2.49905345830418    0.48821707360990
C         4.76925600539394    2.74266979075236    1.21241986703606
C         1.64976914571675    2.45082164051017   -3.62430033017769
C         0.55413376879185    2.57784647432394   -4.31963664197801
C         3.20697882961082   -0.19229228487064    0.20437761983324
C         4.45388948402406   -0.73627932830941    0.84275020375350
O         2.09948007657934   -0.36393837918985    0.74046119547022
H         3.08575758263112   -1.30727998719254   -4.38227120597833
H         4.19176179083364   -0.01277633128255   -3.80730937955091
H         2.41622871828261    0.23937277568189   -4.06738953540106
H         3.44266190632899   -1.69656777435041   -1.91830857578832
H         1.88594608938000   -1.04189041158804   -2.00383684881891
H         4.90202823130442    1.40210250502755   -0.92688380799948
H         1.32555954776342    1.29901217375035   -1.57193285119960
H         3.64848516086235    2.21942356981250   -3.23756474513376
H         2.97124798467357    4.65079383593004   -2.68162711129777
H         2.81648939020489    4.62449085936986   -0.10677924886167
H         0.35571736382662    3.68146293806435   -1.81809285391763
H         0.78966352379352    5.37554434285258   -1.49072131978819
H         0.27931450142334    4.29482692592049   -0.17419081416210
H         1.57397213847679    2.36587880059307    0.48892696302684
H         5.77279143613135    2.76403135305940    1.57116705647143
H        -0.30507640969388    2.59572711438783   -4.94987462830263
H         4.97714714878673   -1.33166515707764    0.09656515635097
H         4.21232450636672   -1.44793217217991    1.63873282206890
H         5.12286584588236    0.04096687329355    1.22255189604905
