36
 energy: -50.518043381464 gnorm: 0.303580716680 xtb: 6.4.1 (79825abcba525fcdf90b791dcacef51065a7a4e7)
C         3.24427838629715   -0.66684642249914   -3.70977392248380
C         3.03423755520767   -0.82315085186752   -2.21080976503934
C         3.40516402506807    0.36587529563978   -1.24398431643661
O         4.78558839520329    0.72272384254580   -1.42887962554149
C         2.42945532432986    1.59332208873669   -1.44588344016439
C         2.76974065766758    2.47446745729712   -2.72395747173789
N         2.97683224470377    3.83050085654087   -2.20409921515290
C         2.28283246075153    3.95762794822492   -0.91398599135490
C         0.81148806755281    4.36610962348927   -1.00778432686835
C         2.43959275664204    2.57356284291266   -0.26151160520599
C         3.68969291058622    2.57954434250756    0.60313594794072
C         4.80301076952329    2.85284391735944    1.22432882655795
C         1.63265868493706    2.51831531930693   -3.73169123887131
C         0.48227483083717    2.70100065125955   -4.31759898298098
C         3.18654350059301   -0.18599391886081    0.20223019454302
C         4.39798553197379   -0.90000199394396    0.73216260967183
O         2.06917285435765   -0.16872461955147    0.74498807412321
H         2.91573460434389   -1.61239116764813   -4.17367594954232
H         4.29435474516917   -0.44483937019973   -3.92488119381295
H         2.59685689814927    0.05426240303806   -4.20204696018389
H         3.79339516060356   -1.57429921963484   -1.94363560835047
H         2.04457755203676   -1.17624098149064   -1.89496546444563
H         4.96622642275356    1.39589337590420   -0.75097886668148
H         1.37193232088532    1.29688983565389   -1.54118866383071
H         3.70187036443542    2.13840472323272   -3.17664403905799
H         2.77321513375439    4.56722682441211   -2.87695484164034
H         2.86012610326917    4.66010531598532   -0.30107167654436
H         0.14328084870612    3.56977952573791   -1.35163640068654
H         0.80452617524662    5.27670316428329   -1.61748290162948
H         0.41701183730264    4.71973382921323   -0.04815592029158
H         1.60091414599939    2.35757990138333    0.40880434712897
H         5.56141433500976    2.82072228669023    1.97268131635191
H        -0.35309518732310    2.94444426007371   -4.93294760801824
H         5.23221341738607   -0.85606511859403    0.03415946710734
H         4.16968476136466   -1.88217226219623    1.15832228639860
H         4.61855154046602   -0.26787570642754    1.59683443736181
