36
 energy: -50.518299721648 gnorm: 0.315250345662 xtb: 6.4.1 (79825abcba525fcdf90b791dcacef51065a7a4e7)
C         3.50584710991360   -0.48115000741025   -3.79194461626472
C         3.03325048646882   -0.75524645986318   -2.37174556954472
C         3.44552428815941    0.35638595703764   -1.33231075906740
O         4.86337687865128    0.59357670869277   -1.30922081821506
C         2.52134620921819    1.63827588891965   -1.37758086536372
C         2.84502915694922    2.59365390112975   -2.60565524710429
N         2.83507323472410    3.96354895430905   -2.08100819995718
C         2.13259835145185    4.02384603985629   -0.79062747557060
C         0.60864593814255    4.15791737636986   -0.78044771046058
C         2.55057910274432    2.65574583072766   -0.22536054722049
C         3.93167810338628    2.69542403985232    0.40819506606100
C         5.05122146227963    2.99119202867055    1.00752288918546
C         1.64606072095987    2.47274243273492   -3.53207873904346
C         0.53013327434614    2.53819883811116   -4.20324653410274
C         3.04946256601509   -0.34043492727390    0.00987652948799
C         4.13394460930794   -0.99704634429267    0.81671468793068
O         1.87782156107797   -0.26373019654653    0.41580168781421
H         3.19536265778729   -1.27370999889057   -4.49383423252425
H         4.59370380177896   -0.35960451125476   -3.79556933452330
H         3.00241588390998    0.43221186302519   -4.09823265472961
H         3.55593887723575   -1.67203704194514   -2.05834800227805
H         1.94798343168170   -0.91562043573629   -2.38998786103713
H         5.04185669180140    1.47385117527556   -0.93693253010096
H         1.52875189026565    1.17669775103488   -1.50801169374284
H         3.81083652373574    2.41414267793766   -3.07652774923652
H         2.54034673486301    4.67776850983276   -2.74432297098487
H         2.63740659351552    4.82944544127102   -0.24419853348807
H         0.13936013573450    3.36507187415014   -1.37209253802042
H         0.29158714374868    5.11599702668946   -1.20766956603568
H         0.29846875931086    4.13979648168636    0.27074684956826
H         1.88339840461976    2.40347104640821    0.60565163275858
H         5.96675153357771    3.06228161683422    1.54880853867372
H        -0.26835775943688    2.65285307874356   -4.89968623245324
H         3.67489501382653   -1.66903865300658    1.53974636471594
H         4.69051629997123   -0.22276487602549    1.35440224145917
H         4.80208909241214   -1.64113344753795    0.23824678311999
