36
 energy: -50.517462763649 gnorm: 0.305752741737 xtb: 6.4.1 (79825abcba525fcdf90b791dcacef51065a7a4e7)
C         2.77658951166702   -0.56352904707661   -3.41137967617984
C         2.78399023376124   -0.86830944082743   -1.92057589224432
C         3.33232821660693    0.35933605372399   -1.09696611298113
O         4.69942937860088    0.56804314326396   -1.49012556951971
C         2.42375831422050    1.61606975930390   -1.40440303625345
C         2.84414379363890    2.45211999880961   -2.68891871943254
N         3.03029779089904    3.82664532697112   -2.21143266752049
C         2.14732016335765    3.95610770554375   -1.04276712979170
C         0.65429638675420    4.14960125322186   -1.31470459568827
C         2.48156725037310    2.66293661630540   -0.27993014594934
C         3.88437036130484    2.81174634476031    0.28610933124983
C         5.10290957738887    2.74126465512530    0.74463351111091
C         1.75788133619252    2.55717219998046   -3.74693729032925
C         0.68345861355994    2.74184234504302   -4.46216981751945
C         3.34876528252705   -0.12933837482386    0.38789686090609
C         4.50660241702894   -0.92405444043164    0.92274936258368
O         2.38995515220067    0.12724376454737    1.13505830734530
H         2.25242870086169   -1.37156269896477   -3.94946706226510
H         3.80853292827458   -0.38611888172927   -3.73049885353618
H         2.20331226222649    0.30774011988786   -3.71753078647610
H         3.34518835334359   -1.79770828390919   -1.73836551477922
H         1.75045999318406   -1.11491506678661   -1.64697383041030
H         4.95758631809566    1.31082566282262   -0.91831626408136
H         1.36079432990372    1.33953058992188   -1.49897431000191
H         3.76872212130758    2.11056878804580   -3.15284410309145
H         2.88386127405615    4.52731742124634   -2.93570798837596
H         2.46101856142312    4.81824837044179   -0.44217312962989
H         0.27292871327352    3.38295880718202   -1.99712295755800
H         0.49056832653385    5.12324478302454   -1.79028089389937
H         0.16830213509758    4.13315682737120   -0.33231596333566
H         1.76036102897562    2.36883661042643    0.48995341062255
H         6.08972555383242    2.78782244121419    1.14496565205441
H        -0.03906263435168    2.87937314205898   -5.23340915314514
H         4.20296345507801   -1.90530832147562    1.28333110559290
H         4.99174572032737   -0.46719946332385    1.79126029740507
H         5.30027935663818   -1.07986559727647    0.18675332997875
