36
 energy: -50.497572651596 gnorm: 0.308952386776 xtb: 6.4.1 (79825abcba525fcdf90b791dcacef51065a7a4e7)
C         1.45183981625635   -0.90732955015868   -2.91860705465445
C         2.26420857543954   -0.89545671922262   -1.63199996872643
C         3.32589118488207    0.26027192487361   -1.47954545261003
O         4.36459267223021    0.25681750762895   -2.47362084449099
C         2.62321966045641    1.67037868913958   -1.61087698784977
C         3.38902785495816    2.97697711027013   -2.09256451842432
N         3.10786264484833    4.02287944416879   -1.10311994991190
C         1.75724008475008    3.66490177525007   -0.64501534314080
C         0.55665416704152    3.93619294068483   -1.55358801580209
C         1.82286838570174    2.14965106490104   -0.38881021194726
C         2.55895359163452    1.82055932459703    0.89970786197884
C         3.30421222629671    2.02784456085357    1.94931366926719
C         2.78551609314763    3.26763097616395   -3.45700554820677
C         2.85267243227642    3.64783239300396   -4.70238973475453
C         4.11012029012117    0.00082978577689   -0.15230568283166
C         5.54394922257297    0.44397055267588   -0.07492019497734
O         3.69883744221926   -0.70707978194689    0.78209891165473
H         1.13335839537395   -1.88498453110191   -3.31855866036933
H         1.99580403470792   -0.45104585219986   -3.75174974446413
H         0.49567254485025   -0.39049291691547   -2.90815207006279
H         2.87681953547590   -1.80750188206559   -1.56266314095461
H         1.55444613214447   -0.85227496434878   -0.79639851786726
H         3.96320574173344    0.31072622848335   -3.35754342909635
H         1.87119781493577    1.44135955687518   -2.38374403563817
H         4.46020909215263    2.88377500849335   -2.26753082725619
H         3.26336508228259    4.97570299547827   -1.42701198385942
H         1.60295473195112    4.16119404574997    0.32053961635344
H         0.82188606902187    3.57734698561015   -2.55346720075823
H         0.35711620979648    5.01166052209068   -1.62078550295242
H        -0.40675690228157    3.49321544841595   -1.27581417199102
H         0.84909041454068    1.65702994441060   -0.29696890723930
H         3.77193077316871    1.88373406192791    2.89626180260168
H         2.63527847542581    3.86776851609490   -5.72225726475378
H         5.79330690937098    1.38810692232614   -0.55606700232758
H         6.10773562296970   -0.31872170583548   -0.62158019853729
H         5.86129926696130    0.41001186390296    0.97103684182158
