36
 energy: -50.522592155101 gnorm: 0.303137235387 xtb: 6.4.1 (79825abcba525fcdf90b791dcacef51065a7a4e7)
C         3.23776497961763   -0.23527802981354   -3.83800052616822
C         3.35097713528255   -0.68412129475473   -2.38846111382887
C         3.51297287114304    0.45946747806411   -1.31510973586330
O         4.81894002305518    1.05442324911155   -1.40215018660263
C         2.41172301023490    1.58477879997190   -1.45765639188989
C         2.78235913322077    2.58079898645137   -2.63928965544439
N         3.00305164423889    3.86680318098872   -1.96887625496031
C         2.20670021354585    3.95334506968501   -0.73578095331351
C         0.75561853955691    4.35181672294511   -1.01162881705983
C         2.23425410852091    2.49936996178132   -0.23465224323104
C         3.34190887802612    2.26699461230117    0.77999260993918
C         4.35741696919451    2.21679936810040    1.59624848279928
C         1.70297594707128    2.53948299022987   -3.70869618081244
C         0.57266299073653    2.68360190962051   -4.34246836348524
C         3.31998430474809   -0.21651600601507    0.08120424131886
C         4.51984340896766   -0.90719695661855    0.66560619628044
O         2.15278315951796   -0.32262673431126    0.49325218656579
H         3.15004533963240   -1.09617103445913   -4.52237576735526
H         4.14351287741237    0.33046332862612   -4.07836710331257
H         2.33328832672185    0.34966843791868   -3.98375677114687
H         4.21766532672442   -1.35806697906719   -2.30737498409821
H         2.51416390840471   -1.31134091456295   -2.05650274804478
H         4.86137014416585    1.59081337436350   -0.59232176191791
H         1.50120847905169    1.05305983867090   -1.77944562429362
H         3.72682445716764    2.27719366310045   -3.08933203176546
H         2.83516360097442    4.66807952552101   -2.57445828729216
H         2.71051196729821    4.58903152855207    0.00210982127561
H         0.34962479161922    3.65417137167716   -1.75145096008570
H         0.68520548990002    5.37109387195528   -1.40795886744397
H         0.14830052701045    4.28229523905940   -0.10174978777684
H         1.33069537835069    2.29480419756831    0.34937548453746
H         5.22483014494474    2.00860852328463    2.17976383593329
H        -0.22959750051717    2.49778859031104   -5.01893957834271
H         5.36570590832627   -0.23812974071470    0.51748227823942
H         4.62735793443713   -1.89696722896388    0.21042800579239
H         4.36346083049897   -0.97597662089668    1.74574702960657
