36
 energy: -50.521016585945 gnorm: 0.304410397113 xtb: 6.4.1 (79825abcba525fcdf90b791dcacef51065a7a4e7)
C         2.59659295926267   -0.62146007248765   -3.40819793422630
C         2.96441104733780   -0.91129691895451   -1.96039054886470
C         3.41220022380279    0.36471827518381   -1.14959394820407
O         4.77252872233726    0.64373472856779   -1.52209195442189
C         2.43854834631827    1.58873346951645   -1.38021296098388
C         2.75656812015877    2.47800446484917   -2.65839330176009
N         2.98156743768005    3.81990723426859   -2.11008831527083
C         2.17269339545599    3.93615246912445   -0.88763219974102
C         0.73830664871327    4.32308243856956   -1.25277543209359
C         2.37399181139386    2.57412731838348   -0.20184852075295
C         3.77800089337785    2.61603906303991    0.37901590526126
C         4.99887036704935    2.54875543213908    0.83178575659759
C         1.61262288805004    2.52158501176339   -3.65834099988507
C         0.90977521020819    2.79337066221936   -4.72238164907056
C         3.34112725822163   -0.04660168487172    0.35694361983560
C         4.59227903862804   -0.72891250148853    0.83370228779479
O         2.27285372193879   -0.03456694424911    0.99101640327503
H         2.30633940994534   -1.59261484852962   -3.84387241124280
H         3.45024469337088   -0.23532349311643   -3.97423316842991
H         1.77809617961365    0.08949313709573   -3.48626086792807
H         3.82430213349683   -1.59657359648160   -1.90645209999821
H         2.13253057934331   -1.31491680791296   -1.36969345741085
H         4.94946116695856    1.56191805622194   -1.25568805130207
H         1.44379342853526    1.12335319892594   -1.47609786695431
H         3.66594749334383    2.07925082887492   -3.10644883129974
H         2.64017169771746    4.56542953860426   -2.71391380131105
H         2.56038101235464    4.74244210456013   -0.25359616884390
H         0.29722189853180    3.69191074148133   -2.03119902477517
H         0.79109096649915    5.33457897628886   -1.67116518402818
H         0.08537926967577    4.34356825965289   -0.37253999795461
H         1.70665396622589    2.28286542083612    0.61618607966473
H         6.03069773031515    2.57678515525465    1.09784184200287
H         0.05758007806442    2.84747367313155   -5.36003210270050
H         5.19230016870215   -0.23223950492407    1.59420578279180
H         5.23759408092802   -0.84907899788665   -0.04238004425188
H         4.35266270312865   -1.70297371439614    1.26922396208167
