36
 energy: -50.520371690090 gnorm: 0.296822673612 xtb: 6.4.1 (79825abcba525fcdf90b791dcacef51065a7a4e7)
C         2.99622093730188   -0.59786646981858   -3.71090591219047
C         3.02388835378097   -0.84386252038213   -2.20951914659762
C         3.33923570450802    0.37495381988617   -1.26022265649554
O         4.71735587407021    0.65923698339063   -1.55529292038586
C         2.34178145446881    1.59197533829054   -1.41299690211634
C         2.82403904556516    2.57499021846347   -2.56486229041362
N         2.92865105020572    3.91832414829112   -1.98479643851076
C         2.15624420338073    3.92095706215968   -0.73356909592234
C         0.65749658254008    4.11802275990193   -0.96900575102973
C         2.38206062282671    2.50503229636467   -0.17670569354524
C         3.79074936247603    2.44525654829912    0.39111868179818
C         4.79729247174444    2.83648527585614    1.12177660522767
C         1.74796274746525    2.59444570378330   -3.63821530858705
C         1.08414241660991    3.06277161502615   -4.65804777228047
C         3.21415846526501   -0.24298032861398    0.17030312080716
C         4.51395581475346   -0.63355618275669    0.81544264105281
O         2.08078092011546   -0.38916534861755    0.65762925613007
H         2.66873103766491   -1.55878551215418   -4.14286184910559
H         3.98149665167649   -0.25072037071882   -4.03792269956163
H         2.22054378993821    0.12826515526163   -3.94012871178668
H         3.74631323098764   -1.65539092148513   -2.03217736920423
H         2.06151568617308   -1.21343137510157   -1.83386652783012
H         5.04677630849389    1.29754024376857   -0.90001597437625
H         1.35175705862055    1.18732153076317   -1.68023659386804
H         3.75019131015094    2.17668436041706   -2.97756497897640
H         2.69328452512481    4.68614527599324   -2.61090592455268
H         2.51647346337001    4.71827479973064   -0.07256556835851
H         0.23145714708942    3.34168315408447   -1.61294983129800
H         0.44682967807477    5.10980619270733   -1.38487411177691
H         0.11873572896412    4.08021882853942   -0.01514210193064
H         1.68591546447822    2.19874773630342    0.61128263670486
H         5.79188431035800    2.70548416760245    1.48214450912032
H         0.19408547799209    3.16864515690371   -5.23454689745116
H         4.38012108484942   -1.35431081077081    1.62022585350836
H         5.03708799554727    0.19684893532292    1.30036717049759
H         5.20327882276294   -1.04767707626181    0.07434343241214
