36
 energy: -50.521468906595 gnorm: 0.314015121854 xtb: 6.4.1 (79825abcba525fcdf90b791dcacef51065a7a4e7)
C         3.07006311661923   -0.59832193787151   -3.51118942096571
C         2.91186939908214   -0.84929138604847   -2.01873142438070
C         3.33711426034633    0.42342175152396   -1.19078869189843
O         4.73616658209512    0.54644922457037   -1.49838493178903
C         2.47116602423227    1.72565846096368   -1.42254190937836
C         2.77127237368092    2.51452160427279   -2.76913598906262
N         2.98113680599787    3.87532860279210   -2.26304575210582
C         2.35800173860967    4.11514482495142   -0.95293889059012
C         0.86143297847406    4.41402231869957   -1.06000858460539
C         2.59642938755926    2.75088065345667   -0.28370921706548
C         3.98842611868086    2.75756177018229    0.32678405054107
C         5.13391616040744    2.83017317447621    0.94535502500864
C         1.53438681569685    2.33159364236204   -3.63346048451688
C         0.43493099653820    2.18613615367510   -4.31908707563763
C         3.15051714382369   -0.09947054625760    0.27059973608015
C         4.27320547452668   -0.83514428405931    0.94630880892474
O         1.97699936403649   -0.21853095419929    0.66057685379451
H         2.95643387625798   -1.57742857066972   -4.00680981233791
H         4.06391198832759   -0.18346951612038   -3.70709889200756
H         2.32856811007656    0.10565087394884   -3.88009687046247
H         3.59111324367683   -1.65485670377367   -1.69995487354495
H         1.88947414298584   -1.10014379754956   -1.70947716590840
H         5.02412556441385    1.34731379244268   -1.02824418111717
H         1.41036706677980    1.42601301268536   -1.40743385783120
H         3.69568694534346    2.21899579339604   -3.26396046229696
H         2.74634247893871    4.56139756241151   -2.97798685392430
H         2.83519796072991    4.95131175522425   -0.42804367980373
H         0.30388319632538    3.66967933092049   -1.63790867759846
H         0.73196334391072    5.40187756633504   -1.51645249019484
H         0.48827999895687    4.43399095067191   -0.02952017440446
H         1.83331326500032    2.53669732894958    0.47202433333408
H         6.08183940405826    2.85025548684066    1.43246634134530
H        -0.43638459784486    2.01681632905511   -4.90891900183747
H         4.00006220075121   -1.27838718954435    1.90234409993899
H         5.15152987230709   -0.19398410230411    1.07221203060293
H         4.51627886099109   -1.57787844056446    0.18135673342970
