36
 energy: -50.515652210963 gnorm: 0.308071867706 xtb: 6.4.1 (79825abcba525fcdf90b791dcacef51065a7a4e7)
C         3.45563009875221   -0.58271327091304   -3.73694721987861
C         2.94930199882525   -0.71796824146901   -2.30838860872597
C         3.38696040025866    0.37457507016745   -1.25913874788420
O         4.79704335313776    0.64451521979134   -1.33593028675637
C         2.48064139796653    1.65699183796860   -1.44186643167557
C         2.79085692571282    2.48077602985605   -2.76505591718380
N         2.84248490516376    3.88415700539737   -2.34100109170386
C         2.35094409546519    4.02573400584968   -0.96240299851641
C         0.85365118787221    4.32945722095646   -0.88255386036449
C         2.56355362988582    2.66273516039264   -0.28198830887265
C         3.94084317612118    2.63991948583131    0.36062706074827
C         4.95179715219173    2.71073751115957    1.18099695445135
C         1.55294088306841    2.39092145813592   -3.64249277384122
C         0.28549892986630    2.41679984412009   -3.94739610795717
C         3.08365913918537   -0.22498441873322    0.15239505364629
C         4.25161729805299   -0.73992688226167    0.94544968514672
O         1.92110121437769   -0.31888376019648    0.58023084094875
H         3.55357579075808   -1.58298007602962   -4.19200098326780
H         4.45768353368192   -0.14528151931846   -3.78949244736084
H         2.72483432703568   -0.07644762233163   -4.36234141323997
H         3.31168183763038   -1.62833714694209   -1.80655649448382
H         1.85562081047108   -0.73444656543669   -2.39468517507928
H         5.06769594584413    1.56317416165407   -1.16815166460939
H         1.45493442234397    1.26473491354079   -1.53866398718487
H         3.68196807268757    2.16837004064531   -3.30824325973357
H         2.41147710436947    4.53412250198380   -2.99578113128375
H         2.96936352252708    4.78229509377727   -0.46482980465424
H         0.25995413409823    3.45889056558119   -1.18006733435298
H         0.57073295612656    5.22670641328014   -1.44457038525436
H         0.59185764509038    4.58878649737893    0.14980301680075
H         1.86824715316083    2.44662068128925    0.53605651802366
H         5.95751456829357    2.79563478461725    1.52387323953551
H        -0.65195259528452    2.60568707500985   -4.41778748559047
H         3.99155292710824   -1.74999179352207    1.25723549817029
H         4.44254709537670   -0.13222292301593    1.83574932514260
H         5.14279109616189   -0.72108231553551    0.31193211840358
