36
 energy: -50.523744585088 gnorm: 0.299188675744 xtb: 6.4.1 (79825abcba525fcdf90b791dcacef51065a7a4e7)
C         3.55342350043850   -0.32664648368461   -3.78878380845498
C         3.23947832345182   -0.78441354403774   -2.37198123725537
C         3.46677753640406    0.40808926583487   -1.36580372656733
O         4.77275310108035    0.97888684726391   -1.55479188893950
C         2.36428502732530    1.53523065591634   -1.48181618372445
C         2.68936380703602    2.59646529379194   -2.61926477708779
N         3.02773540587225    3.80212109482542   -1.85515429742785
C         2.19071844777199    3.82496952619596   -0.64640714278957
C         0.78416141952527    4.34929439126965   -0.94168750074784
C         2.22803106319599    2.35673652289010   -0.18942525094874
C         3.42176958851937    2.13866668110178    0.72590828702597
C         4.39938113004041    2.56964065608497    1.47329509993649
C         1.47911900362948    2.76433691905069   -3.52343952171192
C         0.53905895685355    2.82703058032800   -4.42477263059312
C         3.31585323538184   -0.31043809003036    0.01435250547561
C         4.51069311848058   -0.79562956739036    0.78582806520970
O         2.16547082114373   -0.54903805745799    0.41819881890879
H         3.70139119943913   -1.18364435688569   -4.46765137813396
H         4.50250086852693    0.21820789314737   -3.76419744700759
H         2.81863700384159    0.33453038240626   -4.24091125095506
H         3.98626298970173   -1.55239232741629   -2.11811628238758
H         2.20542465516460   -1.13467547372398   -2.26286307703501
H         4.66237749282605    1.92014348842348   -1.33755949019342
H         1.39931028324115    1.04509956877387   -1.69135214897726
H         3.54078754651348    2.27619016912175   -3.21862319612891
H         2.89190585114337    4.63558448578882   -2.42423151405016
H         2.64110540211109    4.52156356576255    0.07075022419521
H         0.21747125685671    3.65837578444762   -1.57443587006359
H         0.90754800561362    5.28339422448408   -1.50132547970118
H         0.15393549091119    4.46590585036246   -0.05243764905022
H         1.30759215296163    2.09391380264277    0.34261830896311
H         5.31179575401794    2.48746245637972    2.01825889207204
H        -0.18183984676754    3.08812489237579   -5.16497289894118
H         5.45893942805296   -0.78975563649723    0.25116048375536
H         4.20123481490853   -1.80107557382388    1.08865744954704
H         4.55599573197883   -0.22242114425556    1.71602704438412
