36
 energy: -50.517886428555 gnorm: 0.309006283621 xtb: 6.4.1 (79825abcba525fcdf90b791dcacef51065a7a4e7)
C         2.95113811827811   -0.51983436314200   -3.65567716152040
C         3.00261181621086   -0.78633075993142   -2.15842237433979
C         3.44692309057703    0.43954580257442   -1.27189250628694
O         4.79907630752568    0.79620510494979   -1.60592003554548
C         2.40633908486209    1.61638449116014   -1.44974627655419
C         2.95070776960113    2.60895358060876   -2.56516270827572
N         2.97228298700480    3.90016143504221   -1.86925834132751
C         2.03346817472025    3.87183716714673   -0.73788147770100
C         0.58540557646088    4.12489060168525   -1.16166018296483
C         2.29616202393739    2.46554747202774   -0.17283806626362
C         3.60458787072147    2.56919544358293    0.59376511872894
C         4.78128219276158    2.60823042177896    1.15404774172235
C         1.94201993049505    2.73190430580401   -3.69557737649529
C         0.91654834981070    2.77164554411368   -4.49986181562592
C         3.28178370726629   -0.13632733325358    0.17205695343534
C         4.53272328784081   -0.84567360665338    0.60818273613336
O         2.23324967753432   -0.17497362546089    0.83725190995285
H         2.92148669960266   -1.47851705278582   -4.20088286896177
H         3.87097753958555    0.00708545410596   -3.92856830213296
H         2.12499854824685    0.14231109249906   -3.90173015067897
H         3.59764239794192   -1.66867167944131   -1.87675010278491
H         1.98777083041394   -1.05235043008734   -1.83719271913896
H         5.10537405139107    1.34252393747972   -0.86224391045384
H         1.42510093174130    1.15260818695717   -1.64311969449659
H         3.92577753575862    2.28084470089649   -2.92337015361502
H         2.76723421554705    4.62413682903203   -2.55538836264479
H         2.40759846892306    4.60721120797115   -0.01562259361451
H         0.14653163359831    3.29191972825341   -1.72061093577743
H         0.52425414948761    5.04413481796553   -1.75513468725514
H        -0.06496835637611    4.31309206397919   -0.29960321958233
H         1.50435436025401    2.12849998031479    0.50450491128653
H         5.50551992523553    2.75118713445278    1.92299656366744
H         0.21627452339442    2.84711317812103   -5.29966365114612
H         4.97182285069052   -0.32584925644413    1.45791752742925
H         5.20005460529853   -0.99323386335229   -0.24697024867939
H         4.31211772807033   -1.87921367443356    0.88928499684540
