36
 energy: -50.517743157820 gnorm: 0.303871625618 xtb: 6.4.1 (79825abcba525fcdf90b791dcacef51065a7a4e7)
C         3.12058932690870   -0.48832092471129   -3.56195515566810
C         2.95776066008630   -0.81627017606512   -2.08500630825849
C         3.38084165672769    0.36897788479602   -1.13510600058799
O         4.74367401198313    0.67832911197309   -1.47287574500931
C         2.53391525837790    1.69598600751085   -1.28057592577992
C         2.77917011556581    2.49779091995540   -2.63062905922838
N         2.92797069134907    3.90184301569323   -2.23255592008567
C         2.21855636282714    3.99829625127077   -0.94818166801840
C         0.69897538657266    3.99875364404779   -1.12533464947350
C         2.72838337686588    2.76133358954268   -0.18927942352846
C         4.18644553649251    2.84759273193025    0.23145287964558
C         5.37534083753623    2.91505665974667    0.76251452834211
C         1.60690955667793    2.25770886668320   -3.56795035499783
C         0.63457692542469    2.46391050514998   -4.41180755955460
C         3.03095803530652   -0.15651524082300    0.29504413415471
C         4.11826602205886   -0.98724041077298    0.91624033954898
O         1.92954464971920    0.10591304947980    0.80633803616214
H         3.00533647975185   -1.38497993779531   -4.19434773004979
H         4.12202997507012   -0.08143418153515   -3.73451945722116
H         2.42035986915734    0.25793336864246   -3.92838182697283
H         3.43819179701876   -1.76849687883677   -1.81228595197327
H         1.88163254049116   -0.91247576154563   -1.89382590102485
H         4.89973647002737    1.45072200801179   -0.90332286434161
H         1.47875904152440    1.38150596820462   -1.22527902105514
H         3.72116008144341    2.19740344290699   -3.08795974571890
H         2.42182606757419    4.45377575155462   -2.92259045359949
H         2.50051463908888    4.93717932491307   -0.45685238762793
H         0.24088320886277    3.09342705205772   -1.53693163479852
H         0.36932218433289    4.82729312777024   -1.76236879661586
H         0.24803254291461    4.10837820872619   -0.13226805497929
H         2.11333809772869    2.53310497249050    0.68763842780113
H         6.38561309488970    2.95321790767278    1.10035013623476
H        -0.18874401007144    2.47747768538942   -5.08835790305641
H         4.93127343152408   -0.32560497818831    1.21006428243852
H         4.46965723176406   -1.70658672352832    0.16961000918908
H         3.66386383855410   -1.52575220850553    1.75255013410916
