36
 energy: -50.518054885930 gnorm: 0.310048617902 xtb: 6.4.1 (79825abcba525fcdf90b791dcacef51065a7a4e7)
C         3.25130774601847   -0.70216998896867   -3.63151286308005
C         2.92274097519274   -0.83441737678596   -2.15164926366141
C         3.36206798504172    0.38466354968585   -1.25334278780503
O         4.66737024007090    0.75864846581739   -1.72601589601357
C         2.30550075850804    1.55045789138362   -1.40821555621593
C         2.70740698124096    2.45869106779098   -2.64888809302340
N         3.08049335811482    3.74081285055914   -2.04148677433155
C         2.29482751321533    3.93809823523772   -0.81429617054294
C         0.83163676087687    4.34990209537223   -0.98750163431080
C         2.30245224761228    2.52111495457248   -0.21593751740629
C         3.57188591725423    2.33559806277566    0.59924542812870
C         4.63029317075521    2.61582858651257    1.30726722143924
C         1.59047041298117    2.55233396163848   -3.67557648028647
C         0.75996573186831    2.93271261517055   -4.60596286322705
C         3.28838196625728   -0.15764033282964    0.21102320932558
C         4.59807011624799   -0.58253121775223    0.81303012879108
O         2.18720765479562   -0.20881489730645    0.78390868782276
H         3.01721531044507   -1.65858079287990   -4.12918753163196
H         4.32509998403048   -0.52512680428516   -3.74917580638977
H         2.66574201361791    0.09442282579940   -4.08321843895616
H         3.37964218214116   -1.78994171357460   -1.85141487996317
H         1.84144760195291   -0.96259062246927   -2.01661801448780
H         4.92263351245862    1.65595905216630   -1.45213431861195
H         1.30713736051297    1.08496828831639   -1.36462645656047
H         3.46578378210953    1.96698382057446   -3.25701445731815
H         2.86197296448820    4.50172672486713   -2.68196993987939
H         2.86239562872740    4.63146819666455   -0.18222743676978
H         0.35381684278164    3.66176283450624   -1.69250464549889
H         0.73648058683844    5.35810985422677   -1.40633791708257
H         0.33415926499983    4.28852800242230   -0.01266953782107
H         1.41747841903467    2.45735558438793    0.42602040538813
H         5.57633680049681    2.73141645257618    1.78463512903959
H        -0.05651398228014    3.15707251691332   -5.25309907304103
H         4.78572419902272   -1.59420614355733    0.45753781556585
H         4.52363175507321   -0.65457467136966    1.90282846323591
H         5.40670945023521    0.04604930661859    0.42978175850758
