36
 energy: -50.519798546986 gnorm: 0.301471488259 xtb: 6.4.1 (79825abcba525fcdf90b791dcacef51065a7a4e7)
C         3.18598310017646   -0.51129807777352   -3.69164883300625
C         2.94935492899075   -0.76310097105012   -2.20974323896508
C         3.43808216884722    0.39789000956003   -1.26139377367095
O         4.80611996936763    0.71991521074217   -1.56449594217063
C         2.43531784549849    1.61442352290281   -1.37931861753979
C         2.77842807978134    2.59388989174502   -2.58289889722365
N         2.89885363610360    3.90246526128325   -1.93090634658020
C         2.08478491190760    3.93210432986560   -0.70673202496404
C         0.59598184026446    4.13238235874139   -0.99632460117813
C         2.44277005542995    2.54226509906539   -0.15344512145128
C         3.78190968885176    2.78663838682488    0.52285978753538
C         4.87735531523115    2.50825080649215    1.17289760297178
C         1.76313699433585    2.44355462367626   -3.70405397195516
C         0.83396520726262    2.78626295640183   -4.55213156972483
C         3.20414692320145   -0.26683616551616    0.13406470407457
C         4.42979445949556   -0.84782244854329    0.78095784233139
O         2.07214778503258   -0.26406625358576    0.64589648544200
H         3.09442115276741   -1.42912672810252   -4.29696523723957
H         4.18008436515728   -0.09176713474887   -3.87597216983481
H         2.49896889768659    0.22939543045454   -4.09273471038132
H         3.54534520591678   -1.63813769486974   -1.90802732731444
H         1.90024497775263   -0.93049796980649   -1.93551023505482
H         5.03452796422480    1.54293948051051   -1.09995574866337
H         1.41701112194383    1.20574875316157   -1.48583816098006
H         3.72366866525793    2.38838513921976   -3.08391497354179
H         2.66495765157203    4.62095844157945   -2.61356291690478
H         2.41900061684270    4.74099750638205   -0.04612771726125
H         0.16579779164751    3.25722346327779   -1.49423559191329
H         0.51618652035989    5.05024673842308   -1.58972084708046
H         0.13846821969855    4.32942342951115   -0.01990032846926
H         1.69377222587530    2.27855530452262    0.60075201014218
H         5.84125299645594    2.70783483648037    1.58192902512805
H         0.30608197411668    2.84525906551919   -5.47604744219658
H         4.51696488948019   -0.28476255429582    1.70855682596993
H         5.23742817989627   -0.60858240462885    0.08175563632187
H         4.22095740188183   -1.91126924111845    0.92710288774616
