39
 energy: -54.530691491194 gnorm: 0.106665753724 xtb: 6.4.1 (79825abcba525fcdf90b791dcacef51065a7a4e7)
C         3.71629137003826   -1.34544488364346    0.30681733999563
C         2.55165988305253   -0.60444382041055    0.97171665605949
C         1.19427418702700   -1.07731231960702    0.42931053185274
O         0.13898032272583   -0.27693491777741    0.95311334924345
C        -0.23656480908968   -0.50093319940556    2.29707253765926
C         0.72080833308172   -0.24511318123885    3.44593171113875
N         0.90705120207105   -1.20883645067566    4.28891706019176
O         1.26539789559442    0.93003611457892    3.77186690858790
C         1.38718447142610    1.92301347596371    2.73569012747751
C         2.71209793676693    1.91001642052009    1.95352486772699
C         2.65556866178045    0.92369784737676    0.76051169116897
C         3.95587339154260    1.61045264380157    2.83330710179959
N         4.04847961974067    0.64711851729604    3.81108033585572
N         4.92008388521510    2.36044294348234    2.41861109059111
C         6.29140909727252    2.15407686732603    2.90785015808063
C         6.99829294936197    0.97998934777656    2.21090665425655
N         7.00938281635052    1.07187977799647    0.74922101553880
H         3.46910407300450   -2.38935904556805    0.08929581471928
H         4.66600275547645   -1.10140265208218    0.79515586968550
H         3.68726523439777   -0.96158811969054   -0.71089986430863
H         2.57336191992392   -0.91438506136387    2.02943257231602
H         1.03694289545601   -2.14242341246865    0.58365878446658
H         1.18550226926080   -1.00145490386859   -0.66539455966475
H        -0.62859984029870   -1.51575011637647    2.43537997585990
H        -1.04703540097874    0.21393990736109    2.44207369711282
H         0.48419835503939   -2.13192599619558    4.10786231072234
H         1.31691748840077    2.85503255418798    3.31494765233801
H         0.57633627236250    1.86715811236273    2.00751144573559
H         2.90728048726757    2.90293402877417    1.51014670053552
H         3.52140195607768    1.10459590261218    0.10887541652084
H         1.76988360063970    1.17694877983685    0.15949604140043
H         3.19466456544233    0.13283616502906    4.02483287739685
H         4.91305554458467    0.15356686355710    3.99648456575300
H         6.24565731016885    1.98425693751560    3.99030293467213
H         6.91354731208483    3.04013370698357    2.73210989855308
H         6.47915042683178    0.04902123054111    2.46467020659320
H         8.04250323677797    0.90640402863067    2.53139468967567
H         7.82242175433084    1.52824210410398    0.32841704327331
H         6.19871848722252    1.65200677389508    0.54749533545935
