39
 energy: -54.522928491784 gnorm: 0.101463510053 xtb: 6.4.1 (79825abcba525fcdf90b791dcacef51065a7a4e7)
C         3.14698704893137   -1.34176266888297   -0.10073969479689
C         2.16669984434211   -0.56807424414352    0.78694460187493
C         0.69282763049192   -0.86536321976761    0.47131043625204
O        -0.23980137846359    0.04595336561398    1.04430584357493
C        -0.46702199475694   -0.16577861371712    2.42306472156836
C         0.60172524635751   -0.34627167917768    3.48470788771096
N         0.58836855362405   -1.36853863227649    4.27771805539494
O         1.61751210564617    0.50771453009830    3.63528022122627
C         1.77700228894526    1.71595796912954    2.86768071196474
C         2.86689616851822    1.77660881303219    1.78333762422600
C         2.38841171625907    0.94614849842511    0.56650211913486
C         4.32721154275107    1.45907861415446    2.20451006129732
N         4.42224888314659    0.60358724330834    3.27769759469204
N         5.17810710291298    2.08731817097393    1.46596290580422
C         6.60546032847502    2.26375440031945    1.77256960894178
C         7.36421881247602    1.03770690300522    2.30641379860084
N         7.20426660011609    0.85215112507134    3.75039305183581
H         3.16070494209220   -2.40458553352134    0.16078149487792
H         4.14860008950077   -0.89906377861499   -0.12852205159023
H         2.75372704327689   -1.17391648161721   -1.10129507440285
H         2.52876101413438   -0.85390738471955    1.78819813992841
H         0.45441861750566   -1.90874726663591    0.66508617859509
H         0.56685788907895   -0.68526652898415   -0.60382087905285
H        -1.16553535900935   -1.00982448185894    2.47143252462887
H        -0.89178336106498    0.79348948048539    2.72024141402468
H        -0.17546858876769   -2.00658573434175    4.00729545627900
H         1.95438218594998    2.45890911140408    3.65869036298424
H         0.86298942325957    2.03073048330329    2.36138280630384
H         2.89261538186880    2.84281753960745    1.49506120299204
H         3.17669437569064    1.03599050195399   -0.19347163745005
H         1.53314148716127    1.50580269344277    0.16018463906435
H         3.69770417773968    0.52370243424458    3.99031952907069
H         5.28216645266062    0.16198519664237    3.57934125869132
H         6.62089182188179    3.06525654356193    2.52089589548811
H         7.04592278992211    2.68949952012646    0.86275027039542
H         8.43053769961502    1.16981261782440    2.09166128181897
H         6.93445306596927    0.13773948803499    1.85490238341864
H         7.21043838482385    1.79120178327444    4.15600449358131
H         8.06460758329584    0.42642599542880    4.08653103264822
