39
 energy: -54.524032359412 gnorm: 0.114501400915 xtb: 6.4.1 (79825abcba525fcdf90b791dcacef51065a7a4e7)
C         2.79151348783032   -0.51138415707618   -1.28035061989304
C         2.19743875793365   -0.10783419889659    0.07307570136436
C         0.73554196176086   -0.57324424282743    0.15404601140141
O         0.17527387282017   -0.14393233744305    1.39114321035269
C         0.53584646112849   -1.00251647813907    2.45427837319624
C         1.75183005083544   -0.60181660964485    3.26834726544849
N         2.50325781454461   -1.50913675240137    3.80332364956895
O         1.98050649647592    0.64304019118654    3.69475793195541
C         1.53412861792752    1.71985524214438    2.84875883525030
C         2.50212485235641    2.03150957773642    1.69411518587968
C         2.19584535311308    1.42100602592409    0.30387112589443
C         3.91430419996123    1.75363867054305    2.27658391787644
N         4.33303515326443    2.51476912946993    3.34334248718957
N         4.52613332068935    0.68675022344790    1.88725855578384
C         5.92873166166162    0.42751517070021    2.24501505757014
C         6.27467883493091    0.15781246302427    3.71860846000008
N         6.77015069889069    1.39577839315386    4.32444649622261
H         2.80143997729893   -1.59819921107415   -1.41038311899073
H         3.81182484625636   -0.12216911996382   -1.36671745516284
H         2.27293475710982   -0.17370097923718   -2.17532715699987
H         2.73194708343415   -0.53900011026132    0.93545283024648
H         0.72869832617850   -1.65724021651725    0.06491657873474
H         0.18644096135478   -0.01346225925323   -0.61364061480632
H         0.65908010386387   -1.99125806418054    1.99615465631539
H        -0.33218558628375   -0.88750166097127    3.10406559824125
H         2.29314872025794   -2.46489415917335    3.47765262790811
H         1.53868984751084    2.58626574204955    3.52584696395912
H         0.49340500120394    1.50706443330636    2.59885239130905
H         2.32945369838516    3.11625613170059    1.57547548277196
H         3.02442480962246    1.78439267390640   -0.31936835876609
H         1.26847414382680    1.87128178099546   -0.07957148548626
H         3.93970876837077    3.39818420647204    3.66590841146325
H         5.25574062202070    2.37532674116329    3.73657260744556
H         6.51678474166082    1.18259701004987    1.70958902934449
H         6.15846688660752   -0.45862231836168    1.64084670957339
H         7.01173559187451   -0.63636551013567    3.88181143722020
H         5.38656957699451   -0.13743307152950    4.28658250873448
H         7.50110637933654    1.94376962518431    3.86424624424489
H         7.13526336854568    1.22072858565575    5.25743499457298
