39
 energy: -54.523607090708 gnorm: 0.108326684673 xtb: 6.4.1 (79825abcba525fcdf90b791dcacef51065a7a4e7)
C         3.52122840647051   -1.46544065351211    0.36329034423723
C         2.46405017736481   -0.57102477607188    1.01898432968672
C         1.09131678228397   -1.00635841681796    0.48382772115495
O         0.02229733508270   -0.23244978069597    1.01944079583795
C        -0.32189051154618   -0.56151976390491    2.35011106476719
C         0.77641126125976   -0.43416892104628    3.38905264935478
N         1.20487349964191   -1.51179045462755    3.96283414122745
O         1.49439542155668    0.65627424353186    3.67051291319551
C         1.35415169496497    1.78701199704680    2.78945549216019
C         2.62596481740598    1.92144746990007    1.93402249735378
C         2.71970742250095    0.92957985109314    0.74797390491635
C         3.91977631232365    1.80168872930518    2.78398854746995
N         3.73063418671167    2.04012202263943    4.12563078299209
N         5.05564454405118    1.63090810006562    2.19679400594956
C         6.24420222387471    1.18399585066288    2.93846423640615
C         7.33587174842156    0.91069749168771    1.89086594279370
N         7.36174492985050    1.85683449805724    0.77316871823032
H         3.53970707415645   -2.48572521206703    0.75933567899063
H         4.56741312063675   -1.21536110527636    0.57051150006922
H         3.37150978906715   -1.47433362811387   -0.71441188093262
H         2.44157181804121   -0.82516261353382    2.09146099280404
H         0.93569092576466   -2.05306891289252    0.73525542955898
H         0.99200499542808   -0.92805307031746   -0.60622547673498
H        -0.69205398197719   -1.59288866703832    2.30616808534311
H        -1.15897112165772    0.13205613993942    2.43484591701341
H         0.63051670194108   -2.33938022109898    3.74172531152235
H         1.22535256372314    2.75521543827068    3.29455862352112
H         0.53460900167853    1.70076101440748    2.07408889341165
H         2.53846942530307    2.97084944405771    1.59985807807473
H         3.69506372032541    0.95813199970158    0.24311145091287
H         1.98964514303074    1.17253199554495   -0.03801412761243
H         2.84694455338697    1.76781635923393    4.55472155962443
H         4.53594994433859    2.02367088574422    4.73935335129375
H         6.13454357419024    0.26087838711837    3.52024183238143
H         6.53611343666617    1.93166333952599    3.68600586465233
H         7.14018761372621   -0.09692990724426    1.50745848499815
H         8.35508318094579    0.90828344280941    2.29049668640153
H         7.22652208843878    2.80986018011707    1.11933587942385
H         6.50362828721414    1.63356084170064    0.27497002494827
