39
 energy: -54.506127673832 gnorm: 0.137927879261 xtb: 6.4.1 (79825abcba525fcdf90b791dcacef51065a7a4e7)
C         2.96007847268014    0.01295621656238   -1.36371946065609
C         2.76826712111361    0.15833588660665    0.14942737316682
C         2.02295431158960   -1.09253734512814    0.63945790940968
O         0.83664950973028   -0.62471505911103    1.27384088101472
C         0.61799598116605   -1.09079269299803    2.59004678302240
C         1.63254550900909   -0.61685963598645    3.61374662950197
N         2.42089998187144   -1.34580265197818    4.33569716615306
O         2.04900384778213    0.65188248036558    3.63911086146546
C         1.35772541499336    1.63168825546928    2.84123045932167
C         2.29896227215770    2.21098281487928    1.77079216402242
C         2.11074439208078    1.53708825717693    0.38885856504931
C         3.67837436081656    2.22483623701204    2.48336707070482
N         3.64985824185901    3.04270249462586    3.58921999581109
N         4.74232457042970    1.68885755713904    1.98849649112105
C         5.99460404308204    1.41745084445109    2.71002899334237
C         6.13563330785824    0.00629219191086    3.30386273975837
N         5.86014294238809   -1.18036357050140    2.49081606472373
H         3.60583444421760   -0.85290641696237   -1.54107525711717
H         3.48932586745181    0.83766439677555   -1.85334836075931
H         2.06203331792020   -0.11880267153355   -1.96379556595728
H         3.75541186247638    0.35517563817862    0.59897925290309
H         2.67582499428510   -1.61195443343205    1.33731457396272
H         1.73794678343177   -1.71471807438721   -0.21837213436044
H         0.52885774384531   -2.18351189746420    2.61637007571724
H        -0.28523321708703   -0.58285839183734    2.92932726936998
H         2.19341260216555   -2.35087671490628    4.29380098612615
H         1.20834958176318    2.41902729918844    3.59417162464927
H         0.39557544060817    1.30060081213106    2.44691160306872
H         2.03821650465060    3.27446736166728    1.62389738585270
H         2.51750738243635    2.26812459226087   -0.32328677468077
H         1.03879099057999    1.38507497853691    0.19494689480121
H         2.84851785384313    3.20803179450179    4.19724667398263
H         4.41644789749342    2.78993464839507    4.20070035421641
H         6.11342418911141    2.11150620097079    3.55074593490116
H         6.79117032255150    1.64368902505829    1.99076842779745
H         5.43844514368133   -0.10503378180307    4.14180171250665
H         7.17377662994257    0.12799341619713    3.62936198438547
H         6.54506572747909   -1.05418127510109    1.74159401614953
H         4.96427586627186   -0.92079124618062    2.08527737853287
