39
 energy: -54.524763716522 gnorm: 0.105391003875 xtb: 6.4.1 (79825abcba525fcdf90b791dcacef51065a7a4e7)
C         3.72657201819968   -1.03187015346568    0.03822796496658
C         2.69611568027385   -0.29377540419159    0.89899276635887
C         1.37299421083265   -1.01168055914573    0.59196394471418
O         0.20222449069712   -0.36482326452889    1.08134355941804
C        -0.28750323777210   -0.80028970900395    2.33353020209132
C         0.66837471191818   -0.51979537162740    3.47786617918003
N         0.78590625844761   -1.36674979478486    4.44891084869778
O         1.28528192629183    0.64232921704881    3.70738585019388
C         1.34346952184944    1.84523590826626    2.91736815182447
C         2.56362517710048    2.02655957453170    1.99775467308469
C         2.65023841475738    1.23455798546629    0.66939782374547
C         3.92966747484619    1.86361335986282    2.71755294382237
N         3.84648828737092    1.40375025020883    4.01147573683529
N         5.02201081264041    2.14065655787738    2.08970489249496
C         6.28709036709849    1.83922195345014    2.77613445998268
C         6.97191666055446    0.62820059591052    2.12166005288128
N         7.28069189250372    0.86296934660006    0.70934520355484
H         3.66717210910717   -2.11656234860769    0.17272123955147
H         4.69671777810006   -0.60445411075053    0.31411848174197
H         3.52323422521688   -0.80211904222685   -1.00570929599367
H         2.86611180823824   -0.51967541956049    1.96452925385978
H         1.47703983788240   -2.01859531381284    0.98987768026283
H         1.16883080268306   -1.07535302409694   -0.48436019204141
H        -0.37720792232739   -1.89274600393584    2.29938216247437
H        -1.24597066329505   -0.32406392414000    2.54205035147050
H         0.29842651576164   -2.24471408255199    4.21391751089790
H         1.38890098009353    2.65093225858149    3.66431235877083
H         0.45832421976378    1.85272914444472    2.27916721183737
H         2.50339686214656    3.05387510063095    1.59580797829654
H         3.61458645503973    1.55688513738411    0.25327368994373
H         1.78994507280149    1.49087180510441    0.03379382062960
H         3.14878275836091    0.67764866693865    4.17009516024829
H         4.73354431596906    1.16925078397872    4.43996272867902
H         6.15061731074643    1.62466387962150    3.84289403126408
H         6.71835172494808    2.84682363866157    2.73382835514578
H         6.34343426611533   -0.26844827742039    2.16212251937787
H         7.93583913146708    0.58392329618573    2.63876303770214
H         7.52997971528979    1.85195736985118    0.63103081985985
H         6.50335869879535    0.66684647436731    0.08348087289065
