39
 energy: -54.522547646813 gnorm: 0.114447022803 xtb: 6.4.1 (79825abcba525fcdf90b791dcacef51065a7a4e7)
C         3.58815182192652   -1.64481203176083    0.41029972512491
C         2.66423327862079   -0.62711747556133    1.08721367234293
C         1.29139635356604   -1.04525759989102    0.53877719749620
O         0.29060835444074   -0.18498031747096    1.07446824683129
C        -0.22218564068724   -0.63600086658977    2.31182771836977
C         0.56489899292147   -0.26138868953776    3.55362001320429
N         0.74617319829363   -1.06667346087108    4.54997804911922
O         1.16262591177908    0.92705852325439    3.67237669685908
C         1.36994815777170    1.83224301870291    2.57139675918122
C         2.75898755925103    1.86814267163085    1.91061855518525
C         2.92542485456947    0.85853316017958    0.74773955258340
C         4.02666848257445    1.73725851103427    2.79751596579242
N         4.02419982911175    0.73249883186398    3.73723983500329
N         5.03543994439529    2.41836893994454    2.37016504685886
C         6.43308855420939    2.25695141194368    2.79794698595051
C         6.93232140877613    1.01363226013473    2.04374503918595
N         6.76873954797998    1.14408996650431    0.59415423305229
H         3.49687353569345   -2.68861758739595    0.72702071624555
H         4.61035937545546   -1.44319188415037    0.74856571657589
H         3.62305104334277   -1.66279551446826   -0.67708037084849
H         2.74560378327510   -0.78731893350473    2.17487715171795
H         0.99914107256717   -2.07700375761941    0.72077960936278
H         1.30219690813803   -0.81808729882586   -0.53476252592318
H        -0.23499813031967   -1.73235687943397    2.33447991828914
H        -1.26558180966875   -0.38870411498950    2.50956547447883
H         0.00738359541573   -1.77964702467607    4.45231390075785
H         1.25150818140515    2.83589279137566    3.00475041526620
H         0.67116155129910    1.63531721123514    1.75668434588474
H         2.81291860643779    2.89351816279728    1.50286575151126
H         3.92738372678903    1.03013651138172    0.33102389575281
H         2.20218725622875    1.16560166105474   -0.02195530960334
H         3.22597128396813    0.73538975452106    4.37127411938756
H         4.90720375988705    0.80348905668904    4.22787611341827
H         6.65359984089823    2.10585402050025    3.86151663112629
H         6.91062734120549    3.17811690931879    2.44235149822865
H         6.36656101924574    0.14410303190768    2.39650648489367
H         7.98625688930155    0.87838116157087    2.30724010302772
H         6.95969701667724    2.08082350052042    0.23023061171039
H         5.90168451904567    0.81996776039472    0.17275465163106
