39
 energy: -54.518201267287 gnorm: 0.108176796735 xtb: 6.4.1 (79825abcba525fcdf90b791dcacef51065a7a4e7)
C         3.87018059719570   -0.24471449420797   -0.37021385283732
C         2.70284631081240   -0.02355365693980    0.59723574114658
C         1.48018613520041   -0.89877149856589    0.28195686585494
O         0.36905506551954   -0.68798966306110    1.14773817293922
C         0.34630867588735   -1.17630867339362    2.47380861171831
C         1.21042597972353   -0.63371364163418    3.59665165894269
N         1.53799837379488   -1.33889786604894    4.63081062645058
O         1.53971410708558    0.65482322956600    3.71924633252348
C         1.18854084534657    1.78197820119185    2.89420250178531
C         2.33480856276111    2.20479026247813    1.95897666560276
C         2.18680541188143    1.43371102383223    0.62374927526921
C         3.77696535759768    2.09898154094523    2.52441530964770
N         3.96998557276471    2.47547815995363    3.83346936565024
N         4.74353004275912    1.84051555335120    1.71010080906760
C         6.14374588100548    1.69128430798662    2.13389353357823
C         6.42215170733797    0.34500389352388    2.82230893159040
N         6.71533547690318   -0.76585606817602    1.91394492850728
H         4.47305390376599   -1.07760195305322    0.00530739528405
H         4.38331966103545    0.70729564538657   -0.19600752467021
H         3.64390754448257   -0.44845297682526   -1.41483242896539
H         2.93988167286624   -0.26552863338717    1.64631145999870
H         1.89452757466276   -1.90312921562565    0.33319072370499
H         1.02222550837291   -0.83015605845368   -0.71291725377024
H         0.51151544641248   -2.26029302990941    2.45487658899490
H        -0.69813546535211   -1.03657349387617    2.75406204202348
H         1.14670792590426   -2.29249471503162    4.59581779672622
H         0.88012258565551    2.63921884116118    3.50995646337561
H         0.31903134891760    1.43709888811192    2.33219689160049
H         2.06563006739507    3.25046970563504    1.72517497757115
H         2.55342914307021    2.08010867227305   -0.18543447830450
H         1.09730269530104    1.41256656385113    0.47431495265877
H         3.18950205018246    2.59978504378199    4.47734038800863
H         4.87053142983784    2.49711978995821    4.29607965731665
H         6.49945091706935    2.59730793440712    2.63909760482678
H         6.63669018316193    1.68280407223805    1.15411227304663
H         5.55868807241534    0.05280031269111    3.43030083067282
H         7.31741643766089    0.56845379553900    3.41143854980275
H         7.58546757934126   -0.64010704272118    1.39103750175828
H         5.98645875834460   -0.86240086190030    1.21121093428708
