39
 energy: -54.529265463313 gnorm: 0.109220539700 xtb: 6.4.1 (79825abcba525fcdf90b791dcacef51065a7a4e7)
C         3.50150634935552   -1.76459349988109    0.60714132616265
C         2.49488647766118   -0.76025743687453    1.17772495780677
C         1.13063721773405   -1.03539662674185    0.52701201288828
O         0.19685334909577   -0.04947064312864    0.95668184571828
C        -0.43652108231883   -0.38715087555491    2.17415651829702
C         0.51291191539215   -0.40667272067159    3.35740649420113
N         0.46653247760401   -1.39238725366592    4.19423924456352
O         1.26264876391036    0.65749273147939    3.65612703408222
C         1.43533801608757    1.79462762578472    2.78917779506285
C         2.79442045316541    1.79135930574680    2.06790714487480
C         2.79960497576768    0.73589402994242    0.93421119375318
C         4.09356479093298    1.66225985198185    2.90831773104936
N         4.14977587078474    0.81052171111265    3.98721139119032
N         5.08251689623403    2.24393206174316    2.31857940784769
C         6.45482219521901    2.03552306068194    2.80419089893569
C         7.12987794149064    1.17415222136948    1.72426656953938
N         7.32628126448713    1.80394521399861    0.41664343281452
H         2.92603943567451   -2.68479989375912    0.46490217394729
H         4.32064998343473   -1.92890173168458    1.31565339964638
H         3.99119752670062   -1.51648452048292   -0.33231666576726
H         2.50367622503633   -0.89406024776227    2.27194480012310
H         0.76171203155769   -2.04105517706557    0.71564723942982
H         1.19954946946350   -0.89097729549761   -0.55862360441798
H        -0.96502735321509   -1.34651246399562    2.11956480653957
H        -1.19960842408842    0.37859154907481    2.31652127135294
H        -0.14562139953145   -2.20014004819542    4.00323475413404
H         1.51148593640157    2.58688817336398    3.54790107601730
H         0.54403233777405    1.92772267069791    2.17379278941786
H         2.89049963452181    2.69130441872094    1.43431943044339
H         3.76366837886430    0.90169188699746    0.43409714260745
H         2.13189564468440    1.12422866991507    0.15116947547459
H         3.21326199097412    0.43816313026629    4.14040240989376
H         4.66253456385204    1.15475473645591    4.78973344809186
H         6.45183146928909    1.44657996749374    3.72927097095434
H         6.93431021689603    3.01683868312033    2.90492921547631
H         6.48980185500396    0.30806062906796    1.52229009990970
H         8.10850609646368    0.88326015886349    2.11945165243984
H         8.11797223087683    2.45159101040642    0.40418519736773
H         6.51244410550612    2.36457795716339    0.17627446199454
