39
 energy: -54.525218741972 gnorm: 0.118549728709 xtb: 6.4.1 (79825abcba525fcdf90b791dcacef51065a7a4e7)
C         2.58173203917530   -2.76530707574520    1.32854177976717
C         1.95434826085330   -1.37145871696672    1.43397656606594
C         0.51591295545229   -1.21842336003645    0.91649328249390
O        -0.08512584588697    0.07281792973472    0.90832093529003
C        -0.58149521588303    0.51751083761011    2.15463604247535
C         0.45285116803786    0.38457667689777    3.25660731735973
N         0.41156417881968   -0.37056959363035    4.30642765478686
O         1.53027730620868    1.17325188596533    3.22608275715503
C         1.90916474126749    1.82009081545983    1.99622827681687
C         3.09702434748582    1.09239652612513    1.34293074489205
C         2.92861787515213   -0.34978045000890    0.80342623821286
C         4.33534951779134    1.04800232244073    2.27851214707844
N         4.17408421349557    0.21321137552610    3.36006040769140
N         5.37689157508879    1.60467457368964    1.75941076452810
C         6.67884496074397    1.29089111112177    2.36680847352785
C         7.44817015080371    2.57211769344485    2.72804762915906
N         7.84790112923666    3.46586967381820    1.63877526468164
H         2.02845319012766   -3.50282916033122    1.91855672344217
H         3.59267216003182   -2.75380389257255    1.75026513586873
H         2.65451248419352   -3.03623671661052    0.27723927034932
H         1.92098727429015   -1.18702380796478    2.52033207974439
H        -0.14499246398007   -1.93822448757007    1.39412128505677
H         0.51864671875465   -1.44083816014960   -0.15809254671783
H        -1.43782795723053   -0.08376642325633    2.48301643261393
H        -0.81322310600059    1.57028854512823    1.99064592802578
H        -0.46227137126152   -0.91082106576096    4.21576650144976
H         2.27347890599753    2.79456220705934    2.35234199899022
H         1.08191443356241    1.93724350198949    1.29425179223644
H         3.45535959787144    1.73381616237741    0.51785953640539
H         3.97877651801400   -0.66641108070679    0.74071189277163
H         2.66179251858115   -0.40607529912428   -0.26213885748092
H         3.23226189783154   -0.07647183393283    3.62127105072836
H         4.77370542416399    0.32921307545276    4.16780882645523
H         7.20181284485343    0.68337531486675    1.61843343528890
H         6.63478520374732    0.64505581614004    3.25224216753592
H         8.37642112499465    2.32365682263701    3.25456814933739
H         6.74507881999970    3.03189711827749    3.43002196372716
H         6.99652268093817    3.88775389055371    1.25990415703838
H         8.53652872284466    3.07959869645446    0.99767932489632
