39
 energy: -54.521510357337 gnorm: 0.116460683145 xtb: 6.4.1 (79825abcba525fcdf90b791dcacef51065a7a4e7)
C         3.22462895950090   -1.66379113350546    0.18888379000438
C         2.33025694875969   -0.74200039532017    1.02431225199045
C         0.86198393316162   -1.03124605958691    0.67672596622113
O        -0.11735802156253   -0.04110463547693    0.97526877087240
C        -0.60215984057459   -0.12646653492771    2.30007676786127
C         0.52229123057030   -0.22892631280373    3.31348507899248
N         0.60408348032982   -1.17722439953153    4.18990621865112
O         1.48589415858330    0.68114627619498    3.47787696927860
C         1.60426343264603    1.91053786228585    2.73687536683828
C         2.82020198691142    1.85323085811422    1.79583528342334
C         2.78849827840310    0.70935055017410    0.75188460504571
C         4.24193453552120    1.87506102997834    2.41947991716462
N         4.38575566954990    1.04141721578671    3.50436818356453
N         5.14382135465876    2.62833466479989    1.88718385699977
C         6.55397414055777    2.54693940086765    2.29622979944316
C         7.22655209052691    1.21248646395459    1.93460736114647
N         7.09205266791365    0.17123057751479    2.95577719375918
H         2.74585416692036   -2.64604453907713    0.12464286309415
H         4.27115652297853   -1.73999850032359    0.50345546820714
H         3.37240665248197   -1.22916767584104   -0.79762573331377
H         2.55236899315400   -1.00600486062900    2.07133917903103
H         0.62047957306336   -2.02227111519704    1.05432779191687
H         0.84416516329817   -1.13144553086092   -0.41590987841406
H        -1.27315744218667   -0.99059205729945    2.37572787441169
H        -1.16725321130404    0.78886410913893    2.47832033323546
H        -0.09021938460219   -1.93975776153025    4.20279285127004
H         1.67756211614980    2.69327682187410    3.50569479095485
H         0.75548613365412    2.10689491570597    2.07971494208348
H         2.80639590662203    2.86810883509995    1.35948921144403
H         3.79295252491856    0.72702826290711    0.30715952727200
H         2.02062598854261    0.93850015777325   -0.00154520223421
H         3.69308556180524    0.29937382375708    3.59794365890941
H         5.36854610066838    0.80500962115242    3.56514589944594
H         6.70767131953158    2.90428153706936    3.32156867918505
H         6.95836490368606    3.29346394898974    1.60181887260083
H         8.27838277665456    1.38479809368513    1.68050611604340
H         6.58381446356222    0.87432142499959    1.11543994506948
H         7.95973343908829    0.15801840822306    3.49737703598040
H         6.92456008020535   -0.71442922220086    2.48464007168537
