39
 energy: -54.523508925286 gnorm: 0.110884769325 xtb: 6.4.1 (79825abcba525fcdf90b791dcacef51065a7a4e7)
C         3.65881202458137   -1.31525157036328    0.16693759325557
C         2.71017667640477   -0.51034609679672    1.06122968175676
C         1.33213924970956   -0.99912391250068    0.58962173355913
O         0.27914023373142   -0.08959793996291    0.89388165815759
C        -0.23928468649180   -0.50208495123969    2.14229094274334
C         0.66535244175925   -0.45091218663580    3.35921230503600
N         0.91182649907785   -1.39080816990243    4.21356545552418
O         1.28559510151755    0.68132047267184    3.70146314774930
C         1.38405929447633    1.84768534681763    2.86218006619748
C         2.63640751381908    1.92667008216588    1.97182483688459
C         2.80746548059234    0.99954326361756    0.74281086157136
C         3.92746659302856    1.71109919569482    2.80694654842497
N         4.10629936403818    0.74954060524544    3.77444486010184
N         4.91312840576846    2.39310444589428    2.32997721873555
C         6.31415566732170    2.27114302882898    2.75977098246622
C         6.95067470012436    0.95394788920556    2.28676250753287
N         6.52413881484798    0.79057075126571    0.89519260435447
H         3.54756769016412   -2.39348739305803    0.31927327711624
H         4.71601001922282   -1.10164594724629    0.35847841226583
H         3.63690993551241   -1.03301039132771   -0.88367986987253
H         2.76314238350033   -0.76275256811391    2.13304268807578
H         1.10113226207883   -1.99185031037997    0.96931665662475
H         1.41690753897676   -1.01621595170254   -0.50433107022772
H        -0.61306558191937   -1.53174609452816    2.08975948008113
H        -1.04527767061406    0.19798189920617    2.36413139017784
H         0.54790724254381   -2.34504610476546    4.06978647843480
H         1.47918492933765    2.64532227421027    3.61308800605366
H         0.43144991911487    2.08292324635704    2.38464754837307
H         2.63113910500147    2.97391779754646    1.61995800411799
H         3.75627643895748    1.27105106884996    0.26004538357625
H         1.97471893410058    1.27926750843206    0.08093367654972
H         3.27123043336410    0.32486639184858    4.17630097096468
H         4.76903486431983    1.03358765554922    4.48547118528510
H         6.33422707370805    2.33065635017688    3.85461862084162
H         6.80810757645989    3.09157262397431    2.22503355847726
H         6.48406829091100    0.17747533048382    2.90318392164605
H         8.03475931005836    0.88818127941870    2.42437724181474
H         7.26663778399281    0.35238016368421    0.34468451062748
H         6.27701641893096    1.71644332506315    0.55444675382289
