39
 energy: -54.525457253888 gnorm: 0.105926494691 xtb: 6.4.1 (79825abcba525fcdf90b791dcacef51065a7a4e7)
C         3.65721489053591   -1.34335453301371    0.18162462622606
C         2.70235469312290   -0.47456993984569    1.00684915414517
C         1.32498550549306   -1.04379179300182    0.63382695421052
O         0.19989041190288   -0.27089126937371    1.04052626468337
C        -0.41093785065457   -0.63534716526272    2.26179462606411
C         0.50589580247689   -0.46150338742090    3.45807176651245
N         0.55254670184673   -1.29755850426650    4.44443314508068
O         1.31359824089770    0.59638413819849    3.56887859336328
C         1.30614070743353    1.73824434422097    2.69104149392968
C         2.64671790321963    1.85198798200368    1.94454149804197
C         2.76967112501955    1.02593478735856    0.64000366644349
C         3.98274192795149    1.65115846719708    2.70968194666081
N         4.02891460231436    0.99761181812335    3.91938186522114
N         4.98217124462517    2.18357531350716    2.09175523075049
C         6.29178715792085    2.27191269664353    2.75476149947116
C         7.21254602257221    1.14565493829228    2.25712397857612
N         7.19029526937160    1.04575326084650    0.79609136368086
H         3.46685652832105   -2.37491616834592    0.49438370499310
H         4.66667545512052   -1.11715872875029    0.54191295117084
H         3.69370943837120   -1.30820867194062   -0.90528371983340
H         2.85905589814686   -0.67679003037835    2.07915941033139
H         1.19319039839787   -2.07065047419143    0.96733776524442
H         1.37274536041641   -0.99483105244874   -0.46140470148507
H        -0.86569615444329   -1.63303444194817    2.28390265140368
H        -1.30224735897782   -0.01662384161321    2.36986996411880
H        -0.16462762450271   -2.03830535582961    4.41923892135789
H         1.36136419581793    2.58133075992066    3.39481130862686
H         0.39785374271787    1.80034525777349    2.08937957691550
H         2.81836469673253    2.89212008404799    1.61404430355515
H         3.78796476535517    1.27352733895072    0.31015941383750
H         1.99413441418951    1.30597332712889   -0.08794900687122
H         3.22077643912334    0.51026031056330    4.30483982671728
H         4.88609747362879    0.66591230192539    4.34443767293008
H         6.30745818980598    2.42396037460266    3.84070438998013
H         6.78390839947539    3.17813475193508    2.38110980396857
H         6.93920201993352    0.13321526040873    2.57470150805525
H         8.19133073487987    1.33092752003836    2.71116919795359
H         7.36607491895114    1.96188062612832    0.37634496827219
H         6.24984631926441    0.69130775783564    0.64007407674885
