39
 energy: -54.522688036265 gnorm: 0.119516875922 xtb: 6.4.1 (79825abcba525fcdf90b791dcacef51065a7a4e7)
C         3.75296855579197   -1.50159528478328    0.57603452924400
C         2.59559475197667   -0.75034003879064    1.24209879597018
C         1.25911459563530   -1.27469918635144    0.69513150284473
O         0.17887539967543   -0.38137547347558    0.94746965173023
C        -0.44221747471389   -0.46560673068719    2.21419157347791
C         0.60980276684037   -0.37408547778144    3.30357759443830
N         0.90693716601367   -1.33331994600461    4.11945358653008
O         1.27800769414219    0.75604755063524    3.54870804069450
C         1.29307030549817    1.83724042942418    2.59723895885453
C         2.67478125814626    1.88047833811906    1.92170034370161
C         2.71978229378695    0.74500796135585    0.86909299262952
C         3.92701836116731    1.86018458881241    2.83942742244931
N         3.71178493192561    1.64798054706034    4.18154256598930
N         5.03706077235151    1.71224814528361    2.19905196221069
C         6.29604007886304    1.27734710340746    2.82219466628709
C         7.21146344662660    0.95095363951833    1.63082407177022
N         7.36295420290667    2.06813020323766    0.69591294335488
H         3.60933827481321   -2.57858153699565    0.70886865900687
H         4.73170358165152   -1.26924151163549    1.00970758365118
H         3.79892909733818   -1.30028592190192   -0.49228143733645
H         2.63465319880778   -0.76964650832475    2.34364280586292
H         1.06435895807507   -2.31836065567192    0.93151918514374
H         1.37206335471191   -1.15475111562330   -0.38979502672520
H        -0.94936212648061   -1.41369157178580    2.43009254675121
H        -1.14611057688319    0.36617021164541    2.25435491802249
H         0.24827694816589   -2.12276039937396    4.03802782867332
H         1.11545953483547    2.65760559194558    3.30758514295118
H         0.50266131237382    1.87392090593196    1.84574246784054
H         2.69149388988026    2.83692152123451    1.36897715721292
H         3.68408975783430    0.79292246622273    0.34484443955017
H         2.05524795564592    1.12441916804645    0.07900748261227
H         2.79698936612413    1.91217837559032    4.54558269016323
H         4.50669784725595    1.76415085751782    4.79804675255707
H         6.02732185847423    0.41647707512291    3.44615729125911
H         6.66851357503152    2.05861137286452    3.49593567613473
H         6.87204147455541    0.10139620360275    1.02778889808850
H         8.17803357071215    0.65007228385417    2.04761551760674
H         7.86733528967049    2.91018095619206    0.98388016154750
H         6.46878271630003    2.33066684864486    0.28854444033905
