39
 energy: -54.519134038590 gnorm: 0.118320615509 xtb: 6.4.1 (79825abcba525fcdf90b791dcacef51065a7a4e7)
C         3.53425849009382   -1.38799789481494    0.11270395556891
C         2.54059792120963   -0.51095748326747    0.88145550798268
C         1.09374342015641   -0.81943488496445    0.46701771071159
O         0.07379207823406   -0.07868077903260    1.13004194370801
C        -0.35806935402369   -0.65169322338401    2.34765770110036
C         0.78271974812057   -0.62536688670269    3.34755358408565
N         1.09027558771307   -1.65689272746217    4.06549306219164
O         1.44617549383486    0.49478181103023    3.64568239249283
C         1.36143581156204    1.64675811168476    2.78529403785202
C         2.64963426751023    1.86707073394716    1.97328776745093
C         2.69578447164390    1.01428624592595    0.68103041311665
C         3.92280659087813    1.82477413198911    2.86096778799066
N         3.85881079267326    2.08761908661530    4.20983624246939
N         5.02283608274955    1.74989279682681    2.19127533194785
C         6.29778779505373    1.65759493741242    2.91822366948053
C         7.29205420164836    0.80054838476963    2.11772254673440
N         7.29879066368793    1.18831583490485    0.70539016077933
H         3.22099593811391   -2.42480395419593   -0.04564286001671
H         4.55486789097172   -1.43414189567255    0.50793809116298
H         3.79332258713754   -0.97815298431203   -0.86138524689654
H         2.58423321295144   -0.77194983444307    1.95163140971429
H         0.75732720714454   -1.84635782152647    0.59067681005895
H         0.81175974847246   -0.61530844564458   -0.57366866648391
H        -0.68829591388259   -1.67666503519890    2.14015590876017
H        -1.19971283252860   -0.06389720655810    2.71516766517940
H         0.57245348105555   -2.54882308784453    4.06589205138624
H         1.38276839425382    2.50560648127096    3.47163265371949
H         0.53542190754488    1.65089358433896    2.07218623213690
H         2.62949148472216    2.93965050333370    1.70921824919273
H         3.63910079385691    1.23401452834833    0.16247952620779
H         1.82212858264011    1.38811500330493    0.12716101154051
H         3.01841091780098    1.79055961576745    4.70446777217041
H         4.67404865322042    2.51447752807954    4.63249283404029
H         6.15808682791828    1.29977041469092    3.94539517206956
H         6.60024119036593    2.70004573654695    3.07588023224878
H         7.06687689031136   -0.27141615136586    2.14589601125068
H         8.32092731107857    0.86989790638457    2.48530011906648
H         7.24889107885320    2.21002258189189    0.70491454593723
H         6.41473049675565    0.87992489061124    0.30821276640304
