39
 energy: -54.520838085807 gnorm: 0.113721365699 xtb: 6.4.1 (79825abcba525fcdf90b791dcacef51065a7a4e7)
C         3.70623003317036   -1.33048208628165    0.24382510749179
C         2.56032272773118   -0.60631648346261    0.95798250622991
C         1.16836518439933   -1.14570169004930    0.59490849779225
O         0.15806868457730   -0.22800886687638    1.00204408068501
C        -0.37362498838251   -0.33898229204773    2.30681318961423
C         0.72998146086153   -0.45306174714615    3.34166744128371
N         1.06738965232604   -1.55414221943704    3.93145618393498
O         1.46637050120983    0.61206752865391    3.66880385830310
C         1.40826509863477    1.80564119486024    2.86474912955809
C         2.64172293869553    1.84821684137628    1.94599118563496
C         2.55424760369562    0.91969861439277    0.70926071201925
C         4.02007350375971    1.76100063236980    2.65541041078030
N         4.05270572182256    1.06976185962795    3.84442392429901
N         4.95528789322538    2.47908381551426    2.13206477086680
C         6.31673340266675    2.48643379120332    2.68784057187385
C         7.06440009615412    1.16572177903891    2.44164792896575
N         6.88723415922765    0.53643717416580    1.13103553190882
H         3.89121889574784   -2.34318968572201    0.61581487310900
H         4.64483687044520   -0.81098529635947    0.46546250248664
H         3.68778632796952   -1.40791245033546   -0.84134824214882
H         2.69641786751563   -0.77305904556380    2.03917284168739
H         1.02336129589050   -2.17623403027985    0.91116017689913
H         1.01027639489627   -1.06804831397685   -0.48822973003398
H        -0.95293222079826   -1.25832186528935    2.45477154727138
H        -1.00690276253563    0.53507862771177    2.46143610826170
H         0.58852570181969   -2.39793778400489    3.58163047383447
H         1.37704023686548    2.62067750047702    3.60222937465470
H         0.65440996617368    1.71954168360857    2.08044807775350
H         2.64541309489735    2.87889932112212    1.54818996344157
H         3.54236605171969    1.02774307244800    0.24131887524329
H         1.71918262818527    1.15693702925672    0.03385100113445
H         3.14422002660878    0.69612004358424    4.11686138309261
H         4.93044887925081    0.72647449437971    4.21480241227473
H         6.25829694776385    2.82105946802044    3.73055188275939
H         6.84576050171038    3.20807728493896    2.05349183933629
H         6.59761249605323    0.44454713337730    3.12181187961763
H         8.10197142358552    1.35988782940042    2.73190262291831
H         7.35579343653454    1.06446813892585    0.39075830422986
H         5.87210408258578    0.49624900704882    1.08294109801570
