39
 energy: -54.528925986741 gnorm: 0.110760263171 xtb: 6.4.1 (79825abcba525fcdf90b791dcacef51065a7a4e7)
C         2.74020710125935   -1.86002054551806   -0.14428027187082
C         2.05679834555343   -0.87116455901134    0.80580207635259
C         0.53955888309026   -1.02462406167035    0.61941668719180
O        -0.20718682385525   -0.00055149443952    1.26923568695221
C        -0.35281726519786   -0.10631596705160    2.67103500346847
C         0.92762140669022   -0.12799565400133    3.48460208675271
N         1.12238958540014   -1.07686210864324    4.34238471938690
O         1.81918561472242    0.86347247818232    3.56135886727653
C         1.83028486409035    1.94613232962911    2.61150478858697
C         2.82725376165558    1.72854444523468    1.45995990652187
C         2.57228235824916    0.55110337320599    0.48634684925934
C         4.25335117039134    1.56459460034861    2.05165175723449
N         4.60937919357614    0.27236891836330    2.36153219901686
N         4.95859348106781    2.64403615106408    2.01166050536182
C         6.37133918217792    2.74110264701080    2.40814795772900
C         7.31654601763651    1.53721072954376    2.55349163289513
N         7.06430123452399    0.53075365343552    3.58717845679553
H         2.42415189178399   -2.86252415679962    0.16112038673664
H         3.82635911662911   -1.71829828338622   -0.13118668429041
H         2.36660098679721   -1.67182755022853   -1.14873967955444
H         2.31492381010437   -1.22025590839753    1.81911543682204
H         0.20810615000307   -2.03158258403518    0.86275137697836
H         0.32080723296512   -0.72644939206605   -0.41375808542768
H        -1.00341120689460   -0.96970538135852    2.85531745930738
H        -0.87820308971638    0.81661035578785    2.91823575081331
H         0.27812778090899   -1.66920992122001    4.34745813871350
H         2.26508035167656    2.78545240047544    3.17331524808488
H         0.83488900793678    2.19021811713624    2.23674083005639
H         2.89726934620336    2.60343926324936    0.78897356876560
H         3.56747336564190    0.39395769490537    0.04825858600835
H         1.83300179718914    0.85725509799024   -0.26832475668196
H         3.78537579478100   -0.21570017748634    2.71079370674676
H         5.45929893825204    0.23669458739691    2.91091664954293
H         6.31587904509491    3.24159931744481    3.38234675508396
H         6.77438734959391    3.52696723029888    1.75775858153784
H         8.28786833375711    2.02215982507379    2.70169372055510
H         7.25457812943562    0.97945202607475    1.61350881024213
H         7.19292993619019    0.93648440282305    4.51734622894281
H         7.72277610000071   -0.23592541641426    3.47302378815070
