39
 energy: -54.521882324988 gnorm: 0.104982234670 xtb: 6.4.1 (79825abcba525fcdf90b791dcacef51065a7a4e7)
C         2.76601804172297   -2.65921400243380    0.82584384310573
C         2.15138266784910   -1.34362595354020    1.31471154661525
C         0.63424859373058   -1.38405109108406    1.07601727132031
O        -0.13452279497390   -0.18536663324684    1.04836518962608
C        -0.50171948801664    0.31817044750918    2.31684959129330
C         0.56082947137688    0.67754145067523    3.33847907847855
N         0.38283723536705    0.25535377988983    4.54849956627724
O         1.68871600982404    1.33313038322672    3.05236281211973
C         2.06161575703872    1.88503015952916    1.77531514321890
C         3.21156308738384    1.05202434481673    1.18280391835090
C         2.84645428070671   -0.26444963467709    0.45280931157785
C         4.42953656166249    0.89868244864362    2.13346657475808
N         4.28572147394081    0.87158222820221    3.50138903618742
N         5.58243850648321    0.79925600420804    1.56329854398145
C         6.84017238603112    0.88627840730954    2.32027095683033
C         7.22917492586592    2.22619844003507    2.96617176031536
N         6.86300900195338    3.46578155738702    2.27736993983891
H         2.25626840342469   -3.52110340809075    1.26797042312299
H         3.82157258736892   -2.72926264516468    1.11023905793520
H         2.61704597523394   -2.58303620641765   -0.24930317423797
H         2.35383564680116   -1.20164168234690    2.38902564008764
H         0.16910562493075   -1.93743210081214    1.88869779938925
H         0.41677975877952   -1.93070420470687    0.14968676252601
H        -1.22034867959699   -0.34012531553911    2.81973383470559
H        -1.18323760433228    1.12457458671141    2.04449523377930
H        -0.50382984418815   -0.21722096419172    4.78125322260608
H         2.40564809537868    2.92421585866362    1.87957980349512
H         1.21966723582330    1.86616665787230    1.08133699264803
H         3.68232245738322    1.76921058809199    0.48667510362599
H         3.78284454247427   -0.73677161317825    0.12553807696925
H         2.19643078223232   -0.10407260214451   -0.41985472454135
H         3.33588852439566    1.08451516007082    3.80413245128070
H         5.06562527621593    1.17848829144756    4.06973596165170
H         7.57366146086573    0.71944156765849    1.52227641062113
H         6.85266064613533    0.14658174318691    3.13004265489314
H         8.30192778267920    2.16434544220011    3.18060600636315
H         6.73446757146296    2.21926583516684    3.94275717656222
H         5.84344321905612    3.46501490044374    2.19454544620298
H         7.35744899686098    3.55620833623125    1.39319273857565
