39
 energy: -54.527609094190 gnorm: 0.095293449273 xtb: 6.4.1 (79825abcba525fcdf90b791dcacef51065a7a4e7)
C         3.37406471076992   -1.19204940003270   -0.29399880905240
C         2.56791012800130   -0.44143042842055    0.77100172122299
C         1.16621710940206   -1.05002261337233    0.61232859263315
O         0.01352516655196   -0.59488212116632    1.31430218141055
C        -0.06732885184409   -1.01516250193700    2.66124787338186
C         0.83891543987712   -0.31458074952336    3.65613031744459
N         1.30121248507427   -0.92220175717068    4.70071223293652
O         1.15810808429464    0.97968054078959    3.57372189593579
C         1.16845948982645    1.84306907016885    2.42092035156730
C         2.53585728529035    1.96626772663226    1.72637557316792
C         2.71842093853415    1.06904198049898    0.47699301511257
C         3.73958674514260    1.78932779443516    2.69097924338498
N         3.53148106248944    2.18085993387918    3.99329397076376
N         4.85781244161345    1.35991606146200    2.21208789394896
C         6.08973908446640    1.11606356660791    2.97718091987435
C         7.18880063878108    0.57968520486510    2.04537703788105
N         7.82822323245833    1.50485507528602    1.10713869046577
H         3.31958073801805   -2.25940625165746   -0.05745113669911
H         4.42506970141803   -0.88885369581726   -0.23531557510899
H         3.10180976566710   -0.95899421707518   -1.32137379622147
H         2.94583926937687   -0.57526411966613    1.79791730578697
H         1.32180694219687   -2.10267529286084    0.83761129975983
H         0.82836891361704   -1.00333120911431   -0.43069060004853
H         0.01499584801310   -2.10873297355658    2.66104196719211
H        -1.06566371118146   -0.74199444466614    3.00423211770896
H         1.26165802842727   -1.95182880654450    4.65617861761948
H         0.92905606727487    2.86083710921022    2.76146477651219
H         0.44624302102507    1.55062242964364    1.65690651450883
H         2.58851408744424    3.04895300648211    1.51286762551991
H         3.75963106280359    1.22475119562187    0.16289533822584
H         2.07119224020238    1.34902480450760   -0.36710323928658
H         2.60704561316098    2.16946738408845    4.42278895059679
H         4.32684589255498    2.10674419249009    4.61567740463920
H         6.03138789325859    0.33563682663687    3.74540307537872
H         6.53697355911744    2.03974350769072    3.36426489130313
H         6.72101463526614   -0.17074705446111    1.39835755499855
H         8.06028885033942    0.17827202877912    2.57251863225735
H         8.50963766586642    2.09089044110166    1.59561774835073
H         7.17924601973872    2.03892539334529    0.53441300831311
