39
 energy: -54.519049989302 gnorm: 0.125609669447 xtb: 6.4.1 (79825abcba525fcdf90b791dcacef51065a7a4e7)
C         3.25776143575276   -0.53551649044028   -0.85439614149332
C         2.48987701390727   -0.18986562944657    0.42561135112713
C         1.08382611075567   -0.79235479424155    0.28301882503789
O         0.19046143054796   -0.21499363055351    1.23021054833636
C         0.26824543496822   -0.75311198709682    2.53474647005815
C         1.56288535545162   -0.57269795673987    3.30496909424956
N         2.11261641860349   -1.53716492201362    3.96955354353908
O         2.05903691400849    0.60879566221522    3.68139158521975
C         1.56781731120835    1.78538452918600    3.01143614408378
C         2.46445318763260    2.10639047806254    1.80298820657881
C         2.21250764486879    1.32999467908852    0.48654096589192
C         3.94033340505770    1.83620079830083    2.20237241785406
N         4.21850188424358    2.49711263975086    3.37644520025529
N         4.74574241890676    1.19280604141212    1.42679548205944
C         6.13649434178354    0.85653864075184    1.76621845820391
C         6.27389329105304    0.03665267068108    3.05958810519573
N         6.23778905054277    1.01287940031055    4.15081200367246
H         3.39725968870590   -1.61800118018680   -0.93770932311583
H         4.23612377134526   -0.04367473411923   -0.88408914536263
H         2.77129816965949   -0.22620003342367   -1.77722530103639
H         3.02393233038888   -0.57196236491317    1.31109682129279
H         1.15849705920335   -1.87604028560283    0.33859013507431
H         0.67418480802806   -0.34680341546965   -0.63234367774666
H         0.03348877912640   -1.82275340948955    2.59331552987399
H        -0.46582855879375   -0.29685164187206    3.19949706235012
H         1.63621689071954   -2.41615684975175    3.71638097503276
H         1.67561673687941    2.61789937550466    3.72167174683866
H         0.55562552257385    1.58816122631149    2.65449136117723
H         2.28110311417859    3.18158502672255    1.62718935422666
H         2.92282219690264    1.81961861720881   -0.19371110463322
H         1.16634105342330    1.45806069878915    0.17201206968400
H         3.45411742838305    2.74526363554000    4.00359280795887
H         5.15253584829410    2.31483905873658    3.72259025335633
H         6.81138016151852    1.71636338391694    1.67752472619199
H         6.30057378140059    0.23572393075527    0.87700287518216
H         7.18685805198769   -0.56103750709253    2.96024864848491
H         5.44516714615994   -0.67285548714901    3.15076733521085
H         7.10188310592605    1.47780523062277    4.43987999809361
H         5.99247750147337    0.57268676522281    5.03425409163517
