39
 energy: -54.532390557001 gnorm: 0.107557505649 xtb: 6.4.1 (79825abcba525fcdf90b791dcacef51065a7a4e7)
C         2.87334737477897   -1.46632568490187   -0.40413565271918
C         2.16097876112634   -0.58970585892351    0.63104974263055
C         0.64203646058754   -0.74126594416777    0.45741576635482
O        -0.16678526341257    0.18489099534447    1.17620589869842
C        -0.34790318059046   -0.25073584018504    2.50844508183443
C         0.81597314509833   -0.47503641149172    3.45552784946193
N         1.09556665905986   -1.55133607991245    4.11695035930095
O         1.73838438610436    0.48045858456583    3.59685805792837
C         1.68458532152814    1.70923346176112    2.84738072052301
C         2.73020980189154    1.81770371265176    1.72388140302673
C         2.57918602907972    0.89222276653057    0.49100788649073
C         4.18846702732560    1.76628119459977    2.25451702835790
N         4.36319267857970    1.56110362899640    3.60359158271489
N         5.14892930191845    2.01782190449459    1.43086688707329
C         6.57117642248887    2.03844807465861    1.80404555377768
C         7.03966683533644    0.73163140977690    2.46483557513509
N         7.25581262859311    0.87346563875342    3.90645126075388
H         2.63810217170413   -2.52649970304472   -0.26678685066025
H         3.95510447968616   -1.32727923254135   -0.30190798828661
H         2.51895517799085   -1.06766029872158   -1.35250737233986
H         2.62346958409203   -0.92342973517443    1.57446275765911
H         0.40045511454300   -1.77738229650660    0.68355624594553
H         0.40200916878802   -0.59166450138572   -0.60287515442311
H        -0.94906519962389   -1.15521382178484    2.35613750753332
H        -1.04552744275495    0.47009145945239    2.93583233851938
H         0.29749362251338   -2.19522331660563    4.00664024291113
H         1.84281847979664    2.47975377154082    3.61575367543142
H         0.65073679332523    1.83457015216621    2.52136424972048
H         2.65493034132769    2.84555673291444    1.32586511947356
H         3.57169592517922    1.01031433765172    0.03493802721805
H         1.93955283540551    1.35622628714497   -0.27408293262788
H         3.65751846599077    0.95636115093539    4.02250336050050
H         5.30630027741339    1.44007540107334    3.95195880536864
H         6.82280125304665    2.86113559437244    2.48412365740993
H         7.07432474177219    2.30806344111803    0.86746313060138
H         8.00662774404659    0.41092649067726    2.06142327218167
H         6.33095130078056   -0.05793714526072    2.19500917127864
H         7.81118987913918    1.71281467619462    4.08927405200134
H         7.75279737538284    0.07700773855606    4.29770336467266
