39
 energy: -54.526281141164 gnorm: 0.095855319801 xtb: 6.4.1 (79825abcba525fcdf90b791dcacef51065a7a4e7)
C         3.54729586563041   -1.53404433944572    0.19163549489687
C         2.60477362899765   -0.58973971144046    0.94494869064899
C         1.15168555363511   -1.05174005006535    0.75681132890777
O         0.07580926929894   -0.22347657794532    1.18703028057493
C        -0.48205328473234   -0.59102653346586    2.43247480504901
C         0.41814339537218   -0.34452553203961    3.62862185596740
N         0.42716005580545   -1.09705510223837    4.68109093322650
O         1.35472166750545    0.60426556099113    3.54859698647659
C         1.38554917701245    1.69339679269039    2.60660912848590
C         2.70207592342462    1.79026896921017    1.81621670573250
C         2.75906309082268    0.89758088071033    0.55163742838599
C         3.94406357671514    1.47468476263514    2.69291840790875
N         3.89490768477948    1.12205995473201    4.02177825321958
N         5.07002916171595    1.65977937041769    2.09116963912860
C         6.34993249546733    1.48669967480519    2.79428095693016
C         7.45441573557964    1.18637591457369    1.76772411950009
N         7.70950477251537    2.24707500489553    0.79051443634792
H         3.21863251817632   -2.55769923059913    0.39726870845486
H         4.59948466409064   -1.30686944483028    0.39479342301314
H         3.47145742126421   -1.53425901900873   -0.89380695687430
H         2.91280577144266   -0.74078093186202    1.99261288279785
H         0.96811179288357   -2.06267999494531    1.11365759380435
H         0.94277657420980   -1.07268566910246   -0.32028144835021
H        -0.82980846802583   -1.63059693483686    2.46462271888825
H        -1.42997053949335   -0.06362393598575    2.54306792614510
H        -0.23146846338746   -1.88388580962918    4.78494450505793
H         1.14681541592861    2.53212407381273    3.27644419400796
H         0.58988667598426    1.63543041277246    1.86202878438823
H         2.89556493911261    2.82336872177098    1.47587468589271
H         3.79927838747289    0.94653820721195    0.20152808241113
H         2.04091715552187    1.12002584676724   -0.25121903898632
H         3.00797900942833    1.23672668540456    4.51104883330393
H         4.63080248152169    1.56955857534097    4.55437879264520
H         6.38307121659594    0.67297048368579    3.52870772070081
H         6.54297506897781    2.42236384170066    3.33308003813438
H         7.13312586888624    0.32501285968719    1.17154206403584
H         8.38782397266264    0.90996195876723    2.26857029504800
H         7.63282304676613    3.18340671158178    1.19520903544950
H         6.98826310929284    2.19114103301645    0.07560249109515
