39
 energy: -54.533093119371 gnorm: 0.098063918792 xtb: 6.4.1 (79825abcba525fcdf90b791dcacef51065a7a4e7)
C         3.67486407450728   -0.28942662108583   -0.65008278799506
C         2.76436444586405    0.00949051240965    0.54540002529357
C         1.55264599323165   -0.92975571194805    0.44610316041261
O         0.46744738535444   -0.51929085545572    1.27222729990478
C         0.42422124655228   -1.12271151934791    2.54950983063305
C         1.35027599065849   -0.58066162705057    3.62211837741305
N         1.87516128544668   -1.26182397532225    4.58885851764736
O         1.64318241262267    0.71981385876179    3.70431762871678
C         1.20232395750538    1.76715494581367    2.81932114309197
C         2.30202217820652    2.23892597107272    1.85213810397679
C         2.34760642292258    1.49750214475374    0.49290555810819
C         3.67073215805457    2.02732435168498    2.55398593761948
N         3.66478828804995    2.36943752563951    3.88648446164096
N         4.67257872276278    1.73412115323517    1.79603116408389
C         6.06547476831485    1.70014032754708    2.26630826894475
C         6.39445979044443    0.35556462230306    2.93547308796289
N         6.53481845845064   -0.75484507564430    1.99081363147575
H         4.12156406024053   -1.28573638883887   -0.57262362880028
H         4.31381303603621    0.60015292229820   -0.63070982575364
H         3.14387569355970   -0.32941108053344   -1.59897130636929
H         3.35203570252576   -0.13365008577035    1.46705656536129
H         1.85054795303444   -1.95443665950933    0.65662996419278
H         1.17643800877078   -0.80555771517074   -0.57725061152934
H         0.59651617317695   -2.20215858117469    2.46129264071345
H        -0.60856563255288   -0.98432387926855    2.87065089800621
H         1.68395869008823   -2.27243662392611    4.51281050970550
H         0.97514174266423    2.67207051451722    3.40125958008635
H         0.30182455818168    1.48990678356711    2.26880039397795
H         2.12091057527744    3.31183861852274    1.66076716543973
H         3.08918593721795    1.99445236851606   -0.14750175867188
H         1.38245062468241    1.52195281875728   -0.03403876261288
H         2.92328735099961    1.93141745185697    4.43191219842351
H         4.60028652108712    2.30151177097875    4.26817629444998
H         6.22583628052035    2.53975993315844    2.95330109689433
H         6.69154732411346    1.73714513299688    1.36647432999390
H         5.59343525655941   -0.03094904254773    3.57545231872196
H         7.32464377264144    0.55673369359971    3.47657498950067
H         7.09492627932950   -0.51547419571915    1.16901336299187
H         5.62597242015677   -1.01864053291956    1.61821724063568
