39
 energy: -54.518243837615 gnorm: 0.123214942229 xtb: 6.4.1 (79825abcba525fcdf90b791dcacef51065a7a4e7)
C         3.83171692937143   -1.07504422158798    0.16342523336101
C         2.74322120011027   -0.34467011941124    0.95669120936941
C         1.45282810177707   -1.09511815530938    0.59334788314364
O         0.33532674373572   -0.36090263836962    1.08399727092306
C        -0.23526986823225   -0.80608085381017    2.29794601713722
C         0.64028701413151   -0.52999183148406    3.50586142643778
N         0.74604933341905   -1.34576533654747    4.50456117001334
O         1.38623733267526    0.56609014980323    3.66695096292672
C         1.29315276193330    1.75802716347506    2.86375748539102
C         2.46058325076385    1.98377665124453    1.88728917433574
C         2.43039907141226    1.12633305976537    0.59764591373592
C         3.76055514846926    1.94743154657871    2.73551363173755
N         3.65639893511042    2.28713296192553    4.06456724523020
N         4.89633470511489    1.68987485833340    2.18068983698319
C         6.25636991309238    1.57237097229963    2.72747288561764
C         7.09022970250898    0.50916993971270    1.99386676855509
N         7.53232894919008    0.98257856825206    0.68027464548440
H         3.76804896576028   -2.16496413466482    0.24213309431592
H         4.82632265318931   -0.71358302480506    0.44642365515180
H         3.71166968005750   -0.88636310390420   -0.90143388138799
H         2.88135428832737   -0.41549277963609    2.04811272537261
H         1.36290011266565   -2.09129727357786    1.02063969263590
H         1.26597221168606   -1.09898423734506   -0.48798484587288
H        -0.39204687044145   -1.89045578272975    2.34512420987863
H        -1.18560271701977   -0.27149156961114    2.29430559339355
H         0.29178527953603   -2.23264856618400    4.23854994013732
H         1.22951934387590    2.59976718790896    3.56842820028347
H         0.39098895712052    1.75093728736499    2.24984459843964
H         2.22957002834982    3.01042063231636    1.55083584443046
H         3.18836314518086    1.44487770824313   -0.13107969152064
H         1.40762989770091    1.20051688245748    0.19985972207862
H         2.79315794169675    2.01206356242171    4.53182355214398
H         4.45243695021289    1.94162052975113    4.58649075360752
H         6.13328913846672    1.11269590986488    3.71549414275144
H         6.75445370285285    2.54812638377831    2.78086976432336
H         6.58934573774050   -0.45067046919728    1.82526020411648
H         7.97194700026564    0.28164590392458    2.60157551610107
H         8.45305884113241    1.42089174736577    0.76097714555966
H         6.79317486412503    1.53747575400909    0.25582489979576
