39
 energy: -54.527062572694 gnorm: 0.104516351841 xtb: 6.4.1 (79825abcba525fcdf90b791dcacef51065a7a4e7)
C         3.24805945570645   -1.94872208419152    0.71998314202443
C         2.25977442144721   -0.86587303113623    1.16525924767805
C         0.84009484007572   -1.11271734999983    0.63245278071545
O        -0.09800810051786   -0.08531349401541    0.93744903488979
C        -0.52202463282740   -0.12698154272935    2.28500587737712
C         0.47670162604730   -0.24853608106774    3.42063565310050
N         0.53100265585370   -1.25811566208617    4.22802262292828
O         1.31476442211677    0.76724906258493    3.64338823812196
C         1.67687227748122    1.74945362572958    2.65412061483229
C         2.95203225996885    1.54083509652987    1.81878089291283
C         2.71462361871641    0.52709484290923    0.67192947767465
C         4.19443312862597    1.25795016463560    2.70599497524852
N         4.15524259106384    0.19307643929689    3.57613123677404
N         5.17336435699391    2.05679670181967    2.44580667778765
C         6.55103973612285    2.05407674456856    2.96008071629209
C         7.58253220186966    1.73175215190758    1.86645067256236
N         7.37974665138075    2.46471276469950    0.61475642027843
H         2.96988753605425   -2.92938459717029    1.11885075525711
H         4.20332791943640   -1.64976617895062    1.16503412766978
H         3.28195080040737   -1.98038292786212   -0.36711658146161
H         2.26308445178836   -0.92928673853857    2.26583421892452
H         0.52012999753668   -2.09734566706663    0.96587104964790
H         0.93498655989940   -1.29237308554861   -0.44593950198621
H        -1.19231161483808   -0.99495029979924    2.28940969214129
H        -0.87353650857186    0.89863530386149    2.40111344880324
H        -0.35067425937111   -1.78912065367232    4.16199851138015
H         1.71830001022236    2.64649698866344    3.28873328741816
H         0.86296533393871    1.82418292791214    1.93106470800483
H         3.06748472639642    2.57972053986214    1.46107489552136
H         3.62859827638945    0.50925981078617    0.06254169191414
H         1.96249966292337    0.87749943060527   -0.05009548743254
H         3.22391368980893   -0.01861870444859    3.93248539306598
H         4.84963669891372    0.23094715190321    4.31223050848372
H         6.71965313037902    1.33943337476966    3.77462992668388
H         6.78797135476208    3.08309737577658    3.25675775423725
H         7.42180046244937    0.67631590613603    1.61982104634465
H         8.59403789975457    1.80144203715131    2.27936960539730
H         7.78874023302373    3.39512265231882    0.73067260513572
H         6.37364111590450    2.57315839419049    0.51273469408431
