39
 energy: -54.524311250639 gnorm: 0.104721364914 xtb: 6.4.1 (79825abcba525fcdf90b791dcacef51065a7a4e7)
C         3.70757613632250   -1.17216841994728    0.06705941829422
C         2.52145743436851   -0.52358364695039    0.78816993895121
C         1.18553296871066   -1.18994906341621    0.42544704827371
O         0.13319564072998   -0.50548524721278    1.09828725845583
C        -0.13250900548424   -0.74286085072751    2.46594567360555
C         0.86692724957186   -0.26669281988651    3.50338280183290
N         1.27757131798068   -1.12579024151246    4.37939439706904
O         1.19875484838792    0.99810108154100    3.77536486152196
C         1.28597722826557    2.00781421874027    2.75195391797288
C         2.52554757331191    1.89974923667640    1.84689346911617
C         2.46361695691938    1.00769399172070    0.58210007136541
C         3.79893329245157    1.62435484729104    2.69151133809248
N         3.84778986692423    1.85180025505657    4.04742825561981
N         4.85289487096795    1.12479741572983    2.14036030256755
C         6.11051243637748    1.02084228402064    2.89538748697467
C         7.15954171285449    0.69364059912453    1.82003955492185
N         7.57261800662127    1.89048140306582    1.08381145644509
H         3.65214401001272   -2.21605361218813    0.39172068354237
H         4.71947687242206   -0.79079918138018    0.24198010136702
H         3.48958472200069   -1.07012043463279   -0.99407336692204
H         2.55503558808296   -0.64921181518396    1.88287884240732
H         1.08175645197386   -2.24300127645412    0.67714056893437
H         0.98541097922260   -1.06170030346260   -0.64586708678550
H        -0.29701326064508   -1.79659971568703    2.72137970649799
H        -1.07472533017948   -0.23084906252970    2.66343947133566
H         0.80583326008065   -2.03777397265729    4.28229370720433
H         1.33386517394758    2.98744831766710    3.24910587080100
H         0.47195560467935    1.98603060843328    2.02550151840465
H         2.64542164818668    2.91657789800279    1.43185674074139
H         3.21289291257667    1.37236427318980   -0.13387643187224
H         1.53180729423925    1.28133091631780    0.06572089683986
H         2.96556642478468    2.01125918970815    4.53264087301846
H         4.56976169531030    1.30828074927457    4.50437763029936
H         6.03736705720907    0.31220417909920    3.72912475824296
H         6.33483276470724    1.96546692025021    3.40568348682785
H         6.60506594995502    0.03481076177302    1.14246563905111
H         8.03173964652873    0.14760755791072    2.19369874304100
H         8.21617827419880    2.40061001800568    1.69370804614044
H         6.77490174538001    2.48512135095617    0.87293392045262
