39
 energy: -54.529797530715 gnorm: 0.103315025210 xtb: 6.4.1 (79825abcba525fcdf90b791dcacef51065a7a4e7)
C         3.40806561140246   -1.82573842817387    0.30050607982960
C         2.49302787229271   -0.83764203780573    1.03119866107674
C         1.07582523436011   -1.41539501908397    0.89687392262343
O         0.04380281504711   -0.48916313226083    1.22190120843304
C        -0.28857085230335   -0.45951870379468    2.59524916891340
C         0.75535110711095    0.03881214090374    3.57697107282782
N         0.98115724879522   -0.50674952892198    4.72825178363827
O         1.52345963829292    1.10441934316663    3.33556277580907
C         1.43934505830221    1.90708773126382    2.14260572751328
C         2.71961288440089    1.68345250274521    1.31904718092935
C         2.50965749615803    0.52887344577472    0.30802479434774
C         3.98146262037694    1.40354844603358    2.17935035695444
N         3.97487616170804    1.98343059981932    3.42687684850281
N         4.94115891918483    0.70798270216575    1.67010447019581
C         6.23075947330169    0.58833614811874    2.36658831348112
C         7.29609439673666    1.60644279466498    1.92793483397362
N         7.44301686330939    2.76321725875076    2.81415058959067
H         3.29035046895169   -2.89688034505653    0.49278736095244
H         4.44959333274502   -1.59937818949730    0.55341692897249
H         3.18900209781507   -1.61117943603560   -0.74348264509764
H         2.69853299487076   -0.68688115835940    2.10373598950105
H         0.92963797626089   -2.31838013392476    1.48533405775337
H         0.80508854725228   -1.58541570384469   -0.15289040776898
H        -0.47160829807016   -1.47674711992835    2.96187899487080
H        -1.21308733260329    0.09953450816111    2.74242337175507
H         0.48263520533318   -1.39426776108548    4.89398294743624
H         1.49815314460897    2.94189927015508    2.50981544806055
H         0.56492251294256    1.78332784179911    1.50158505080704
H         2.94989359952624    2.59476520632640    0.73849077283087
H         3.34427852182676    0.52952116094425   -0.40641803676087
H         1.50845145032304    0.58350043208537   -0.14407720536701
H         3.04949120208453    2.17320848270006    3.81005261010930
H         4.66495822827977    1.78802701990871    4.14176402178342
H         6.63457498098975   -0.35733921227057    1.98544897823563
H         6.08830966781357    0.65640869616694    3.45199675711467
H         7.08337283978482    1.92962293528985    0.90279549409231
H         8.22059037489287    1.02056386103724    1.95150525096395
H         7.72135309935610    2.35697588672754    3.71073954680957
H         6.57393908848514    3.29128451547076    2.83046096407333
