39
 energy: -54.512524328275 gnorm: 0.123633916933 xtb: 6.4.1 (79825abcba525fcdf90b791dcacef51065a7a4e7)
C         3.59700538895516   -1.35705484569297    0.44404814802339
C         2.49661200456011   -0.48645409401320    1.05945770167770
C         1.10644507408061   -0.81431867598552    0.49355516432737
O         0.01742875795244   -0.13696465576346    1.11311429598666
C        -0.36039762309470   -0.52558115860162    2.41835761750936
C         0.77270851907822   -0.50332398047417    3.42704970198217
N         1.16120449689288   -1.48677687476737    4.17267999141759
O         1.21334979872872    0.72483186125781    3.71210393335218
C         1.30946697105158    1.66951294951380    2.62912772861340
C         2.63832470984334    1.90492788946735    1.89016627530470
C         2.79484084182120    0.97707723938072    0.65976137192743
C         3.86760754419711    1.63370998380602    2.79903216127859
N         3.70716053326462    1.56149637986331    4.16346281627672
N         4.98379568348262    1.64100705512121    2.15232443114857
C         6.28018250945973    1.67520181319652    2.84564006194952
C         7.36266476366636    1.00079660313240    1.98697464027045
N         7.38399080351950    1.29117335374501    0.55159375646279
H         3.61111906785297   -2.43412961389313    0.63868806957614
H         4.63247257987485   -1.16914760979443    0.74815571900662
H         3.61890629829963   -1.31209501665693   -0.64289058204625
H         2.47561862019640   -0.63180002701077    2.15203783954811
H         0.83701693436183   -1.86590719939493    0.42567130945749
H         1.03071809320792   -0.41291867339615   -0.52495060411909
H        -0.74481649619132   -1.55200509728554    2.45509753940586
H        -1.17959685868363    0.13499228239741    2.70381657757991
H         0.73369025046868   -2.37052577036440    3.85661176384376
H         1.12337967131837    2.55466677711189    3.25443606525627
H         0.57192949087446    1.44515070108449    1.85676844257607
H         2.80958710415418    2.90767525647982    1.45919908820122
H         3.79393319494758    1.24103188160250    0.28671491389692
H         2.13615789071242    1.41264848822176   -0.10588106108414
H         2.83036452470106    1.32828660707167    4.62824081856321
H         4.46856587096314    1.14776970308436    4.68743958083294
H         6.21388772692178    1.15693812064464    3.80982043428360
H         6.50375685759105    2.71057623123856    3.13033575860816
H         7.40068320530250   -0.08954562336456    2.08853722247868
H         8.30899417425091    1.37118699228954    2.39412830887631
H         7.36708519161191    2.29442738907975    0.35267062851529
H         6.49409556270040    0.98717892381303    0.16417785335710
