39
 energy: -54.523002143515 gnorm: 0.115148508382 xtb: 6.4.1 (79825abcba525fcdf90b791dcacef51065a7a4e7)
C         3.77620848580229   -0.75114436272931   -0.26267392497808
C         2.73939265538350   -0.27368817604453    0.75937729404432
C         1.47054372678487   -1.11137909883486    0.53892037945594
O         0.32187147848070   -0.47950196362357    1.09560868017576
C        -0.02547921686097   -0.76471632019715    2.43554746478207
C         1.08457699232077   -0.44338751035695    3.41860780023340
N         1.57178448228058   -1.27775071621702    4.27915422200573
O         1.75503936621211    0.70958674462079    3.34847945807803
C         1.29548251108586    1.89608564726239    2.67355265489722
C         2.38116495789851    2.21355839302939    1.63055132183913
C         2.45570832221351    1.21427762744680    0.44937329786902
C         3.72645035597088    2.36078001450814    2.39164631451498
N         3.66497710451635    3.10961829075828    3.54407475348569
N         4.71326297752861    1.74306761960171    1.83595546901936
C         5.98272438155240    1.52692764000839    2.54604411688254
C         6.11529076720756    0.00454025744887    2.71533481518354
N         7.52339661079431   -0.38214238936813    2.82849933021058
H         3.89920695743003   -1.83709481384262   -0.20138001695739
H         4.72181283522934   -0.19868576574291   -0.23808213152873
H         3.34445535751521   -0.50789145044384   -1.23136071371100
H         3.13713934381108   -0.32956015166770    1.78600935922508
H         1.63682333897242   -2.15296883757010    0.80440119273957
H         1.33433559134437   -1.15495169886679   -0.54908665364568
H        -0.18489192683716   -1.84599312355445    2.52555775040970
H        -0.96890514926342   -0.26873623421753    2.66550992746507
H         1.18503423465866   -2.23108764649731    4.20667935460540
H         1.12176954124374    2.64721051146130    3.45762632454555
H         0.34040338394462    1.62589751197197    2.22005397787478
H         2.22519660781565    3.20692225886594    1.17287469112524
H         3.31445275944918    1.55262202043145   -0.14653130344571
H         1.51186866264986    1.38773086309699   -0.08809719487712
H         2.79818635714666    3.42011554359733    3.98161546962733
H         4.36458492224893    2.77931798385874    4.19745833779626
H         6.20142984436588    1.99119187062519    3.51519976926626
H         6.70046784291083    1.78036159132244    1.75632715820051
H         5.61672220280527   -0.44156938033190    1.84756634873325
H         5.68114542563912   -0.28223583104047    3.67854808462828
H         7.94473692280781   -0.23272896161118    1.90843257146873
H         7.48883683476526   -1.36722456508690    3.07917035953338
