39
 energy: -54.519885014662 gnorm: 0.117301182592 xtb: 6.4.1 (79825abcba525fcdf90b791dcacef51065a7a4e7)
C         3.75382554590415   -1.43923117271780    0.04037606465378
C         2.66264842838551   -0.66359983178006    0.78553959286056
C         1.24233351187472   -1.17600481376447    0.50189968489688
O         0.28251342036242   -0.39106590452222    1.20278113590943
C         0.10575424115207   -0.68001545093219    2.57489629890119
C         0.82876490215294    0.13704923415375    3.62919487508851
N         0.97849533419391   -0.27738790006086    4.84570459324857
O         1.05301496520964    1.44000198225386    3.43995046459211
C         1.22200810013793    2.04429955848691    2.14350760859626
C         2.66685150942136    1.89753062194832    1.63534082194549
C         2.80087087215858    0.85006973469220    0.50213086753080
C         3.78792792293996    1.62687376942543    2.67489126996050
N         3.72435398224349    2.50856895762965    3.72902645675902
N         4.72813096809043    0.81491368941025    2.32718575320244
C         5.97613673212240    0.61545365912281    3.07896493631679
C         7.19425239286188    1.23997623623006    2.37892043545802
N         7.21603437916088    0.66977083911080    1.03003827197094
H         3.57188082926506   -2.51756183450312    0.08805259678351
H         4.71915423383424   -1.26283156224881    0.52720924532891
H         3.74346231801030   -1.19369056340112   -1.01959527743464
H         2.99251774185681   -0.76374979594456    1.83265645710624
H         1.18352902022979   -2.21308819798466    0.82444928058882
H         0.97372413546991   -1.11781249950614   -0.56049062980429
H         0.30510726379013   -1.70626020641101    2.90618749997497
H        -0.98017459736464   -0.61958529336171    2.65260230295015
H         0.66435663692533   -1.25245831082133    4.96501190937675
H         1.10944366489850    3.12918154402704    2.28313787969394
H         0.55016071497374    1.57611691810019    1.42221369033102
H         2.90986872172999    2.89616000583989    1.23006587569791
H         3.84087437764194    0.94855268118118    0.16196171440898
H         2.14443868909914    1.18353119757027   -0.31499464423140
H         2.75676637589025    2.71814235171275    3.97198706076576
H         4.41394979946717    2.49585342858303    4.47048138745969
H         5.93970035381236   -0.47257006837105    3.21130088635061
H         5.75374957485043    0.95982503768825    4.09630933130106
H         8.06600072102357    0.89752198122244    2.94759122537724
H         7.29790242799788    2.32103697892811    2.24083771437440
H         6.42878977853123    1.03106388848674    0.48589845349803
H         7.16757939693688   -0.34148317850473    1.12717045970005
