39
 energy: -54.519345121603 gnorm: 0.122778736303 xtb: 6.4.1 (79825abcba525fcdf90b791dcacef51065a7a4e7)
C         3.70308991854057   -1.58475171970174    0.58177892865895
C         2.60058697510392   -0.64602784116824    1.08260316451658
C         1.26102564273856   -1.28504911337780    0.68569990913421
O         0.11152196418015   -0.52194694637986    1.03916121311993
C        -0.26456788479479   -0.41952539937223    2.39765373652649
C         0.81212762006794    0.07439340729920    3.34562822205549
N         1.46083133465600   -0.64485934453107    4.20349313801447
O         1.02427979287347    1.39172962263491    3.40397346191428
C         1.39429281833479    2.13496670956789    2.22703364947725
C         2.77574637551762    1.89648316337420    1.59295259642213
C         2.72560436037894    0.78631125380317    0.51392320070373
C         3.86359765315561    1.57381338307707    2.65276222328035
N         3.71346556112504    2.18459073729965    3.87629826331969
N         4.85710293869586    0.90086702695783    2.17921122051545
C         6.00255879932972    0.62839631828580    3.06021363195204
C         7.17854199814855    1.33869278063918    2.36996802932006
N         7.17679557237099    1.14720172394922    0.91792812885661
H         3.75278309005787   -2.51357517394123    1.15883311081861
H         4.70526984924441   -1.15077743518583    0.66712851611749
H         3.48313109863964   -1.86120587217165   -0.44736054546661
H         2.68630552302429   -0.54383526246324    2.17690957579410
H         1.00254076730687   -2.28223021689190    1.03477522050420
H         1.11979152788776   -1.12792703537251   -0.39113624953480
H        -0.56127382138138   -1.43948938602000    2.67025755568311
H        -0.97783081133554    0.39677467428227    2.51530434956596
H         1.18980481196805   -1.63995918207587    4.20271799715288
H         1.26002450452030    3.18638004609506    2.51967388282018
H         0.65829740804581    1.88739301971885    1.46031541789535
H         3.05448030541762    2.89314452136859    1.20624943115095
H         3.70320585020301    0.95236249438252    0.04090781706631
H         2.04589094479773    1.03664143522762   -0.31379555239496
H         2.78369199434013    2.48738536997380    4.16441830667697
H         4.31327135644530    1.91500756574703    4.64637450589285
H         6.06330017854104   -0.45274822005219    3.23362938001182
H         5.88592764827680    1.16144298029537    4.01168394338764
H         8.13543572236281    1.03157625324396    2.80659186641756
H         7.03701786049399    2.42307090100982    2.42093387666130
H         6.16460592798440    1.18199645262532    0.77427464653519
H         7.44773051503889    0.18347140607583    0.73838602340754
