39
 energy: -54.524925240597 gnorm: 0.123077767910 xtb: 6.4.1 (79825abcba525fcdf90b791dcacef51065a7a4e7)
C         3.39959833345143   -1.49691871209073    0.17631859761874
C         2.46277757579014   -0.58697041725352    0.97750592802429
C         1.04883236319730   -1.10524539259421    0.67344193640233
O        -0.03530146590857   -0.27802658109462    1.08451539327912
C        -0.32585932848223   -0.47177651313560    2.45399440916722
C         0.82094732611880   -0.27646509327563    3.42794131184291
N         1.34603840835029   -1.16800015411530    4.20480541649804
O         1.38113354775161    0.92446086043321    3.59454164478291
C         1.41729943100495    1.84736386697542    2.48935369488864
C         2.80481392674354    1.85435900691368    1.82444641355836
C         2.84703929907120    0.86968511251629    0.62948422307450
C         3.93219509548301    1.65344415689418    2.87295846331473
N         3.95653206795475    2.31969115066438    4.07635021134083
N         4.92103410953267    1.00088069769652    2.36254840872894
C         6.24774479309553    0.88515512912793    2.98618371766923
C         7.22741204310555    0.87115205925308    1.80129869118686
N         6.94274980653313    1.92443151489275    0.82423086153525
H         3.25540281331317   -2.58199001196173    0.17495031798783
H         4.41957117498111   -1.51799630696379    0.57530980231948
H         3.37843739409601   -1.22236687550627   -0.87634960218597
H         2.69158209949569   -0.77156344187574    2.03998953351570
H         1.01557643057448   -2.09857846799724    1.11528082229383
H         0.91675400608778   -1.13828522229367   -0.41544474547334
H        -0.73547615370037   -1.45851739052812    2.70144195462884
H        -0.99285110048453    0.33667783905349    2.75475181189171
H         0.96637739446426   -2.12479478038463    4.14092098782337
H         1.11048827840026    2.82580934711470    2.88640236023083
H         0.63071179682777    1.63663843726494    1.76291477815065
H         3.04942076771164    2.86553662181670    1.45262236458515
H         3.89058556722878    0.86163609382713    0.28602006520231
H         2.20453284460093    1.17530189106404   -0.20931115966227
H         3.02858773985610    2.37255463752341    4.49504033021948
H         4.67139601392375    1.92650024872737    4.67620849386604
H         6.38848193217319   -0.07249779429533    3.50167375608301
H         6.49209912705423    1.67511464308506    3.70680306038774
H         6.95559419016044   -0.10054369676683    1.37406462306307
H         8.28674491616539    0.98737139816099    2.05191679339173
H         7.12180437935403    2.78773722621662    1.34289990854407
H         6.02387025655101    1.90446229039404    0.38870952106451
