39
 energy: -54.527539083316 gnorm: 0.101506899808 xtb: 6.4.1 (79825abcba525fcdf90b791dcacef51065a7a4e7)
C         3.39446390151437   -1.56213962507852    0.21962599650948
C         2.44800304305608   -0.57488744610571    0.91033950472778
C         1.00543108230836   -0.90295261775568    0.49601557455422
O        -0.01775664821285   -0.09333802873759    1.06718069620247
C        -0.32059123670327   -0.55677835778333    2.36754600509558
C         0.72443515209904   -0.40353443072767    3.45672951421358
N         0.92174303520243   -1.19975713684717    4.45731545174595
O         1.44612798949994    0.71432678701987    3.57219864872539
C         1.53186954323353    1.76506825523376    2.59082764766648
C         2.82421399909996    1.85491778463236    1.76069517179796
C         2.76051387068191    0.89504292313202    0.54665940818281
C         4.14531616931167    1.69600780683541    2.56080095226166
N         4.29961858854888    0.45483944892217    3.13379390662242
N         5.02917738802050    2.63302921652203    2.49051368995294
C         6.34621216098793    2.41828827991545    3.10839748282533
C         7.12752902866317    1.20775573263139    2.57169325681158
N         6.79917515166014    0.91494813269946    1.17471824564956
H         3.07315080921104   -2.51734639201757    0.64684009159517
H         4.45855256011617   -1.41032175684345    0.43093028983113
H         3.17079954386101   -1.55879101204979   -0.84522135357212
H         2.52742716452726   -0.69262815901264    2.00355789251806
H         0.80348842346968   -1.93939617360790    0.75686433639581
H         0.88715701511240   -0.73983222674851   -0.58269361368485
H        -0.57495076769272   -1.62309157392226    2.39838646220184
H        -1.28618524826747   -0.10876990091676    2.60386799595147
H         0.26222152530424   -1.99248022912400    4.43996218089559
H         1.46075473462814    2.61017614912393    3.29073593570001
H         0.68132481284571    1.86431717946156    1.91439427488598
H         2.94872682183072    2.85105513718292    1.29942223200817
H         3.75756219666002    0.79828031032769    0.09549108128901
H         2.11186609193364    1.31712982099942   -0.23493675620089
H         3.42810151851365    0.20394243923846    3.59928862568643
H         5.12937181401022    0.45336479974458    3.71428242342284
H         6.22597145014476    2.31240964532922    4.19327901057280
H         6.92975409332302    3.34043906204874    2.99815200994699
H         6.85103649191866    0.27535523724722    3.07645827618535
H         8.19128794098556    1.35905161003797    2.78152422537893
H         7.52882330524738    1.21658773955159    0.52433221426454
H         5.96767278033303    1.42764288788542    0.89158377311390
