39
 energy: -54.522105053593 gnorm: 0.107819344424 xtb: 6.4.1 (79825abcba525fcdf90b791dcacef51065a7a4e7)
C         3.09821612727010   -2.40259182117960    1.19809572937225
C         2.27757681176017   -1.13741941521182    1.46907561445185
C         0.83093900444970   -1.50496201247595    1.10512992568726
O        -0.10034961231463   -0.43117587804886    1.01400707323394
C        -0.69056216298678   -0.02075571643747    2.23082263641667
C         0.21694153951475    0.39718644069708    3.37259581471704
N        -0.04435927017628    0.11293557871030    4.60750333118976
O         1.29380181620953    1.17173425189233    3.21691975852696
C         1.69290069202875    1.81093162288557    1.98946502332960
C         2.92668122306792    1.31346383263528    1.21638125241119
C         2.72409705843181   -0.03486238981109    0.48134627544644
C         4.21223209731983    1.10376020576557    2.06143508832355
N         3.93615236991506    0.62216444464798    3.32019423145880
N         5.33728190345852    1.33872331197332    1.47558923645078
C         6.70276367040970    1.21507740095099    2.00723372574460
C         7.27600640524625    2.42139017255912    2.76887588101394
N         8.55188801250563    2.91290027167558    2.24386570864039
H         2.64263142049672   -3.30594934170624    1.61590157156453
H         4.12822457116558   -2.30956912348796    1.55922207156982
H         3.23507568163020   -2.51139556411578    0.12414598636441
H         2.47777116242381   -0.75006025364037    2.48158370250347
H         0.50615497594131   -2.23256293253875    1.84550172646072
H         0.86824103540296   -1.90135679069866    0.08253994052895
H        -1.39649947323388   -0.75298075886568    2.64091139051355
H        -1.27580057806453    0.86512723913177    1.98255088719806
H        -0.92762670634942   -0.36714115856847    4.83781751504214
H         2.01718337050856    2.84651289375236    2.16708392734154
H         0.89604535772049    1.88940511539921    1.24804590772798
H         3.11446990808828    2.07073126529879    0.43417459299422
H         3.69847171538111   -0.34482200003481    0.07942549216686
H         1.97316279637220    0.14439160974132   -0.30208184596004
H         3.02588611583389    0.83735300457027    3.72551616828928
H         4.57300531958505    0.85241116374025    4.07309812556957
H         7.25236207668785    0.93879260446946    1.09935468814038
H         6.73993209522279    0.32258178017221    2.64371419363217
H         7.30641608886147    2.26569540057240    3.85305341073950
H         6.63388242042681    3.30044035324696    2.65290145692555
H         8.33147449053136    3.31696848807606    1.33034415656933
H         9.25324056546110    2.18166884266627    2.15542122166807
