39
 energy: -54.524355519077 gnorm: 0.113915708729 xtb: 6.4.1 (79825abcba525fcdf90b791dcacef51065a7a4e7)
C         2.54191267290426   -1.94358998674553    0.03137306678412
C         1.85638807716094   -0.80462155091713    0.79317822942589
C         0.33448988561164   -0.84346279520321    0.58672678973882
O        -0.35574718687748    0.21661576713362    1.24126841917096
C        -0.35429774683232   -0.00703667600468    2.63676588130389
C         0.91362628909259   -0.31344066509281    3.41160125526554
N         1.08735619749997   -1.30802989623416    4.22072635458700
O         1.87607518008064    0.61230682894271    3.38989578115457
C         1.93175929968103    1.73438086372678    2.48859257058415
C         2.96357372421429    1.58270193064229    1.35735447731573
C         2.42327164039958    0.55721484605714    0.32985741715157
C         4.37499187747828    1.43957737276816    1.98834320819619
N         4.62715795676801    0.27662988881549    2.67870142758352
N         5.03239350795939    2.53744966783062    1.82506548966563
C         6.27719218235630    2.76113588432168    2.57534235948503
C         7.41313517336753    1.72505086083238    2.58294887899235
N         7.50249338117863    0.76403008646596    3.68455947962871
H         2.07355605461345   -2.89825359319508    0.29105253809964
H         3.59891229932418   -1.99605769950164    0.31418356158897
H         2.50132745284393   -1.69418387190000   -1.02696821404561
H         2.09019567533023   -0.90042970611248    1.86623569031008
H        -0.11383038428218   -1.79080419877255    0.87757272973389
H         0.12234671028754   -0.72519150050493   -0.48342166097657
H        -1.07334808841629   -0.79736506661647    2.88379104654357
H        -0.80126601954647    0.93601467663223    2.95268515280819
H         0.21184380211372   -1.84942863948103    4.28432755499121
H         2.27542609116572    2.54220952469527    3.15074232003975
H         0.98376496408665    2.00152217558024    2.01871909733273
H         3.01093098548006    2.49614246591723    0.73771790054389
H         3.29092051858223    0.28232452587412   -0.28548149186958
H         1.75138440874357    1.10334683322585   -0.34845022859108
H         3.85787424685754   -0.13885616776536    3.20286795113114
H         5.54385532314835    0.25631230977227    3.10848350680732
H         6.11966526612446    3.04895233153055    3.62175671534253
H         6.61361598316399    3.65102578961854    2.02949228682375
H         8.36538787163178    2.26341102709456    2.51978511983010
H         7.41594168749033    1.17481503651724    1.63651601814794
H         7.85416769334224    1.32471120435576    4.46451892239497
H         8.21009564731485    0.03799304170601    3.60340237498465
