39
 energy: -54.508851727249 gnorm: 0.102583601238 xtb: 6.4.1 (79825abcba525fcdf90b791dcacef51065a7a4e7)
C         1.78230373729778   -0.10818478636676   -1.28016256385332
C         2.69293320277033    0.24233708780353   -0.09887997479392
C         2.49784604827463   -0.79291808856374    1.01937431223382
O         1.13840796298115   -1.11793929255994    1.29306722714765
C         0.64511613858215   -1.15540343070258    2.61696121172854
C         1.14683597244634   -0.24425242875629    3.72148177295504
N         1.42708972479605   -0.69849501466159    4.90012283475976
O         1.28906935259326    1.07761346734211    3.59409404289619
C         1.18224985264805    1.67849412826856    2.28947518407468
C         2.54731953315645    2.16517758407453    1.77268595325410
C         2.58861253978752    1.73650445132945    0.28478993758209
C         3.71243881534832    1.76718896335232    2.71864300252698
N         4.09602029539726    2.82524732796573    3.50984894239697
N         4.46386045119245    0.72467651357359    2.60597792916477
C         5.64316432761325    0.66325726713594    3.48230247235419
C         6.61806076536993   -0.34419826124575    2.85102849632367
N         7.35049201210782    0.23311887251208    1.72171846655435
H         2.12278767686360   -1.03253943947412   -1.75746028157005
H         1.94129709401222    0.64745326319468   -2.05715361609755
H         0.72221565506357   -0.21865011857431   -1.06119339024958
H         3.75483387239216    0.05650364246038   -0.32938032109940
H         3.18091625057406   -0.49719067891483    1.81246860093246
H         2.84398945542933   -1.72041093195311    0.54592706119866
H         0.78305542920841   -2.17624199335618    2.99317281277248
H        -0.43311982673451   -0.99518741886684    2.59108638600491
H         1.23136450496215   -1.69478720816297    5.08115644141567
H         0.37997184245014    2.43027983634185    2.27202434031670
H         0.84477263800511    0.91237796760342    1.58946519439261
H         2.67278689488236    3.26173900516482    1.72393355554753
H         3.41652528287316    2.27432893621556   -0.19721270213613
H         1.59518389646630    2.04695945047307   -0.07089404979316
H         3.47874756667038    3.63631128877526    3.52791203931871
H         4.44963184374042    2.51671312128453    4.40719225961313
H         5.42975565930562    0.46966662131597    4.54042129855868
H         6.18809444696560    1.60988019774198    3.38233490837735
H         5.96104522534738   -1.17622331981093    2.57413245269714
H         7.37308775320015   -0.58455754176703    3.60645166959927
H         6.66184812405956    0.59740228609261    1.05881420356111
H         7.72529202652266   -0.57028076208434    1.22322953694167
