39
 energy: -54.522272699857 gnorm: 0.118967624724 xtb: 6.4.1 (79825abcba525fcdf90b791dcacef51065a7a4e7)
C         3.68790567244445   -1.28021590033809    0.20906522724560
C         2.64779777898478   -0.40478809365741    0.91570649844907
C         1.27074283005366   -1.00920068016761    0.60152499892628
O         0.15332238117444   -0.27663414402587    1.09481629847340
C        -0.38824575567167   -0.57025140064884    2.36679448780420
C         0.65516519120705   -0.40971324524882    3.45647592774979
N         1.09652993529467   -1.36790668166791    4.20556583449569
O         1.17592967235490    0.80525546484255    3.64737571393958
C         1.41459818235963    1.88102672034561    2.71987811143977
C         2.70210994906145    1.96878217959175    1.88204790097741
C         2.75564436352985    1.10448155130762    0.59775090413380
C         3.95467198229965    1.65645753767639    2.74476120127081
N         3.96711213227902    0.56992463870587    3.58851503867526
N         4.97803299414461    2.36825459505143    2.41274123801831
C         6.35742517229933    2.16443862886897    2.87987173065163
C         6.94377012265628    0.85859295598677    2.31874501029918
N         7.01583612575612    0.91502924409014    0.85699497114936
H         3.36144583634190   -2.31408978407853    0.35973943899831
H         4.70512531644181   -1.01384229857109    0.51613548255077
H         3.56345989037744   -1.15958971454035   -0.86513187127188
H         2.85027368518909   -0.54911744030587    1.98970373132197
H         1.25574804667300   -2.00604597535062    1.03639597729173
H         1.11154404697395   -1.21226489204193   -0.46507295522028
H        -0.88878148547503   -1.54227796117244    2.45224688020406
H        -1.18601220963663    0.15954004225116    2.50787811169081
H         0.68942980536821   -2.31547431805669    4.19752204422282
H         1.33072628283976    2.70240141776110    3.44613246233255
H         0.60604617017304    1.98228865075131    1.99404861703256
H         2.73260173704336    3.02103055899847    1.54677282279777
H         3.76574170099456    1.31613031494453    0.22101571747896
H         2.00044329446067    1.55655952830635   -0.06186315266885
H         3.05212134872787    0.60319368620567    4.03669099368835
H         4.59941244274801    0.66911896536088    4.37325468008428
H         6.40629318978790    2.15564670460185    3.97539473656558
H         7.00619378220220    2.98108667512029    2.54042723114739
H         6.26833241459542    0.03777623648462    2.58454633943799
H         7.99184310471368    0.62883285039720    2.53612904383122
H         7.51791020801190    1.77474656009305    0.62208515137167
H         6.12057181686541    1.08479032506919    0.40522043960200
