39
 energy: -54.530758024901 gnorm: 0.101647206376 xtb: 6.4.1 (79825abcba525fcdf90b791dcacef51065a7a4e7)
C         3.02530694995139   -2.55575202215507    0.96687720496903
C         2.24993448404052   -1.26174155337898    1.23497164052043
C         0.72339921712136   -1.43044337533475    1.19579607361358
O         0.02966333236444   -0.19084310571760    1.09216105666116
C        -0.57464627902310    0.24521588191819    2.29303496604821
C         0.41055799287246    0.69769107348982    3.35441302551501
N         0.05528798801206    0.71859440703879    4.59836621342582
O         1.67254006220519    1.06239952842807    3.11321511593360
C         1.94685805266445    1.75320927073597    1.87950936058618
C         3.16496207187752    1.13077405289268    1.17513437720282
C         2.75726816399231   -0.10800245329762    0.33936002233943
C         4.39739174810297    0.96592305576395    2.10501278368249
N         4.27322156308648    0.66480410180289    3.44162723621292
N         5.54389184463558    1.04447450991055    1.51890077467451
C         6.84273755606158    0.87668319434592    2.18772103224007
C         7.15371123878618    2.15501069991796    2.98337842505688
N         7.08509283345332    3.40166153001679    2.21771207191422
H         2.49707613751987   -3.40301250187089    1.41553725512182
H         4.01565980161656   -2.44077170851349    1.42070933840699
H         3.16631078087002   -2.89990917102747   -0.05567382642417
H         2.60239157273505   -1.03772325121464    2.25521049513052
H         0.35178404803824   -2.02736937919503    2.02562718534274
H         0.37927406336463   -1.88848636448162    0.25985535269721
H        -1.03880955008197   -0.66265674209145    2.69675956791529
H        -1.37256514421609    0.95543904004958    2.07431133335151
H        -0.89681466586497    0.36372578254329    4.77513856017540
H         2.11599774957673    2.78084029847858    2.23235851508024
H         1.10578277440531    1.76799906811181    1.18437451006844
H         3.54346676704332    1.85703171930647    0.43361579011126
H         3.61025691912518   -0.37284102440308   -0.30039926769257
H         1.99008932387321    0.25444427823991   -0.36054201730701
H         3.33958858428851    0.55133591961317    3.83485880349809
H         5.03876742484915    0.17174338532991    3.88467369336052
H         7.56946643717431    0.76573948449522    1.37396881347080
H         6.97240393046386    0.08272952794801    2.93328224228781
H         8.14065633187279    2.05343601317583    3.44838218857084
H         6.45513080756269    2.29028482318989    3.81535726919695
H         6.15968863721120    3.47316549925136    1.78772471512122
H         7.68540027312151    3.32568429555991    1.40023077343945
