39
 energy: -54.519380852766 gnorm: 0.113492148653 xtb: 6.4.1 (79825abcba525fcdf90b791dcacef51065a7a4e7)
C         3.02777245978845   -1.39774162529212   -0.30222014251948
C         2.19267601762630   -0.58581373717272    0.69323313134168
C         0.70046554143902   -0.90409603733138    0.51348544415088
O        -0.26140441365392   -0.00895438260849    1.06316365232594
C        -0.55391635512169   -0.12361647275982    2.44110598242946
C         0.55825313713137   -0.33313246990377    3.45158444161191
N         0.72415531021342   -1.43045151894543    4.11674655667129
O         1.62523757865801    0.46480947692475    3.54442994661480
C         1.73874795668621    1.75126892556354    2.90674991169357
C         2.75262684000976    1.81791060117603    1.75134711648010
C         2.33215033597443    0.94657116750797    0.54169120826205
C         4.20791613040799    1.62159740391032    2.25565536059115
N         4.47294358658018    0.98187796391669    3.44441460266489
N         5.18914216597604    2.08545150025287    1.55837857770421
C         6.64387630361727    2.15526835882487    1.76172262215646
C         7.50850678521266    1.05286395589413    2.39498019464357
N         7.30522257856375    0.75928370473311    3.81539488564579
H         2.85196706412481   -2.46219716999570   -0.11728553128686
H         4.10381042720679   -1.24206532063663   -0.16846652881833
H         2.70011426177612   -1.14096464958223   -1.30752732405238
H         2.60165481567102   -0.95833658024340    1.64678469810384
H         0.48862619258841   -1.89948266637909    0.89737047224274
H         0.39200892936638   -0.89823333290266   -0.53961981372116
H        -1.26153722987027   -0.96027746376390    2.48520681487475
H        -1.09376970556907    0.79972510648771    2.65307336369870
H        -0.12243615822241   -2.01915358486332    4.13655644953021
H         2.05179120344981    2.35530900259074    3.77062247670329
H         0.83181963296114    2.18782421954313    2.48515850262271
H         2.71605548789403    2.88555861618916    1.46964502935288
H         3.09005314723122    1.06843466198233   -0.24428198155352
H         1.40028866514572    1.41079981312713    0.18683988563614
H         3.96290017975429    0.23730224673525    3.91837593992592
H         5.45524088472819    1.03843480745677    3.68389914525798
H         6.76122545689560    3.06641714279459    2.36061585860143
H         7.00217514683609    2.27270272441996    0.73173795273459
H         8.55655302243899    1.32220634544731    2.22275857408842
H         7.25078515789650    0.09292208959130    1.93607533264016
H         7.39605003224701    1.64865901249234    4.31252344523475
H         8.04680502677519    0.23352833131217    4.27152424450303
