39
 energy: -54.526881968788 gnorm: 0.106875959282 xtb: 6.4.1 (79825abcba525fcdf90b791dcacef51065a7a4e7)
C         2.88205094749939   -1.77611390938969   -0.06751530797644
C         2.09116557374655   -0.70788280968164    0.69466761518197
C         0.57663830364763   -0.94035707829078    0.58300831442227
O        -0.15888863439227    0.02150722481190    1.33296544846721
C        -0.46024855149313   -0.33850083198874    2.66601161576450
C         0.74049044942558   -0.12626423542508    3.56882172332048
N         1.09832931854200   -1.04714775985716    4.40428454198659
O         1.60161964000167    0.89301374634419    3.51123431347682
C         1.73968857666265    1.93226667809581    2.52361666447741
C         2.82571882802429    1.73413137522996    1.45187612706435
C         2.54117407019868    0.72169493743641    0.31463954866556
C         4.21095802413598    1.54267048973271    2.12655212953586
N         4.55371213873179    0.39860144959849    2.80938058664173
N         5.03163936574406    2.50961032297752    1.89060809764251
C         6.39745613137382    2.64822923124431    2.41767925227598
C         7.35229543181045    1.44926416861593    2.29659577582863
N         7.21427006908602    0.56931891186599    3.45923806144664
H         2.49321662068539   -2.79133765873841    0.06016614393926
H         3.90912491335549   -1.83831194142989    0.30829490722109
H         2.97965696200941   -1.69298823834944   -1.14802445626608
H         2.42448538686660   -0.94025025391820    1.71946065976091
H         0.30964920190020   -1.88606844105038    1.04925395631233
H         0.32974705473148   -0.71415052649450   -0.46202079526513
H        -0.77749870870325   -1.38823187854039    2.67554341555955
H        -1.25225105751557    0.30140131355497    3.05612537885455
H         0.31152877304934   -1.70318932645096    4.52359099630777
H         2.04928252418232    2.80755959214402    3.11281119427217
H         0.75294910439309    2.22484646211488    2.16087559275928
H         3.01035183351657    2.71193842992948    0.97190756149151
H         3.51156833097098    0.63180721305858   -0.19258467304927
H         1.77257277426236    1.17884281151494   -0.32572107782235
H         3.77502527215005   -0.07512441047484    3.26589697274837
H         5.46643051839971    0.42208558616869    3.24739103963142
H         6.26514552617561    2.80464784651690    3.49502003769993
H         6.85908417998232    3.54310198855399    1.98277741659185
H         8.36099753242372    1.81085171491785    2.06772670921103
H         7.08101051745744    0.77469305192009    1.47814552964826
H         7.69794504069535    0.89525177650737    4.29959581828337
H         7.44915857282174   -0.40723322014242    3.29926756865130
