39
 energy: -54.517033702967 gnorm: 0.124426071146 xtb: 6.4.1 (79825abcba525fcdf90b791dcacef51065a7a4e7)
C         3.69845037132156   -1.16286931249949    0.17043729049098
C         2.54796431149938   -0.43602167179712    0.87443623276899
C         1.18348679970837   -0.88771892283809    0.33178012116408
O         0.04019215931474   -0.39244071153341    1.02184922362508
C        -0.30441654382031   -0.76786666532613    2.34008132287216
C         0.69356100336019   -0.56590027496769    3.46486352629033
N         0.91282841039095   -1.28472305013653    4.51809135826076
O         1.26169159669726    0.63081359994112    3.63483690016686
C         1.27286207146691    1.66680814925686    2.63429262397472
C         2.64130868558118    1.95356307261317    1.99205232650146
C         2.73809875277147    1.08957860321590    0.71007617548445
C         3.90534330038520    1.88732075476318    2.89125256978889
N         3.77508997572423    1.94355477101332    4.25964610834418
N         4.98503344030879    1.62180555498378    2.23708822717179
C         6.28249228730011    1.41749884098132    2.89840053042819
C         7.25390510971267    0.72293093953522    1.92998476726837
N         7.42502395533913    1.28946303174470    0.59026409785102
H         3.72367427436123   -2.25028396527234    0.29318531784438
H         4.56689418152930   -0.96100648630826    0.80686450314368
H         3.85486129879313   -0.91906021200147   -0.87838565887886
H         2.61428969420604   -0.84390348016694    1.89645917100171
H         1.24781599832844   -1.97314954319741    0.30457201012694
H         1.02215931681640   -0.49394512670707   -0.67971687430507
H        -0.67446808148325   -1.79818130329224    2.40479138676307
H        -1.19638052545479   -0.18116329571470    2.56169108235963
H         0.51207441240997   -2.23207619766888    4.44327216695137
H         1.11259151914797    2.46001995398110    3.37878217124376
H         0.48681758672511    1.65818048104969    1.87739207113021
H         2.58347275369680    3.04558435186577    1.83485708706487
H         3.73258575487430    1.26908048688267    0.27903567383151
H         1.90989961601250    1.47063410314581    0.09470899054653
H         2.83391034843790    1.65562997797907    4.52508323417077
H         4.60789574459818    1.90442420965522    4.83441810733861
H         6.18998995617737    0.88479204464358    3.85249844655911
H         6.61839480866514    2.43101263996891    3.14939175831313
H         6.86634074929384   -0.29141754163574    1.78336430394022
H         8.26195582394515    0.75278714522861    2.35594822765726
H         7.60663700465440    2.29412940010780    0.65380195758967
H         6.61265904783937    1.17034803490691   -0.00997927768001
