39
 energy: -54.525799216748 gnorm: 0.103080866731 xtb: 6.4.1 (79825abcba525fcdf90b791dcacef51065a7a4e7)
C         2.52051705771987   -2.72605265263356    1.36953978208700
C         1.88506457979476   -1.33817004190685    1.50191111173288
C         0.40785956969900   -1.37281822931383    1.08123333877541
O        -0.12214648652445   -0.06747431937391    0.87197423639163
C        -0.57939930643504    0.48209471514879    2.09112534356172
C         0.43931218212676    0.40662941754371    3.21291699913384
N         0.28374521700640   -0.41757666139798    4.19808526243011
O         1.59775842380412    1.07128446378730    3.20808047572893
C         1.98092477370894    1.80973089623602    2.03233443835597
C         3.08967709848563    1.05941323964079    1.27402132704770
C         2.74488323536704   -0.33621905978467    0.69728224853852
C         4.42613969031908    0.95517604411984    2.05743368130357
N         4.33631189354206    0.55580053474548    3.37084877436421
N         5.53026062773280    1.30546763678215    1.48965483687297
C         6.83305843970151    1.28571538897187    2.17141896648285
C         7.30345446211719    2.53906048201841    2.92756059259560
N         7.90586771473724    3.52639694579769    2.02903028504877
H         1.97811200881618   -3.56190596521003    1.82266222486852
H         3.47790579534076   -2.58544974532732    1.88297962692248
H         2.62026152061837   -2.96350351921127    0.31237141189324
H         1.89987261134069   -1.05431464840875    2.56704225003647
H        -0.26275255511504   -1.98749461243904    1.67746355837039
H         0.42797795172705   -1.80789833789119    0.07400393017819
H        -1.41745314037825   -0.07373618854248    2.52860856992181
H        -0.96694174646172    1.48223963130774    1.89503231340055
H        -0.64034172622818   -0.87456798452776    4.22811717769450
H         2.46568820501942    2.68910586329719    2.48048661482891
H         1.16212316422194    2.03588247049952    1.34731020820220
H         3.27958225853675    1.67981599715328    0.37981651990530
H         3.76433819338427   -0.71114606914856    0.53247156825259
H         2.31925603989836   -0.05516542490958   -0.27721465100819
H         3.42876576060412    0.59691174196652    3.83328419092000
H         5.19452720968739    0.73499642839036    3.87761775425597
H         7.49568115492379    1.15568295501008    1.30732478962798
H         6.94532624357346    0.40022586074802    2.80886821156941
H         8.10710486519620    2.35985009557980    3.65049640708874
H         6.50478247220759    3.01026553906066    3.50944661315400
H         7.24581438554358    4.03909088930714    1.43924270355861
H         8.60121962929874    3.04367882965973    1.46521633580325
