39
 energy: -54.530141823514 gnorm: 0.098029284252 xtb: 6.4.1 (79825abcba525fcdf90b791dcacef51065a7a4e7)
C         3.37140766649340   -1.85260954612467    0.50531591814015
C         2.39532647157203   -0.80135339166416    1.04352236506810
C         0.97338861220219   -1.24466067466430    0.66685762969630
O        -0.10305124566219   -0.40577340679032    1.07448968871818
C        -0.41896706282792   -0.34673987839735    2.45077015210315
C         0.69953297092275   -0.25084733175291    3.47138119883545
N         0.68673400834895   -0.95720145096156    4.55534304713095
O         1.59829955339939    0.73682162207832    3.44866379664438
C         1.59152352260061    1.83867787032728    2.52110504595033
C         2.81631965600651    1.70851195898907    1.59899963229718
C         2.72497639452244    0.61159403061735    0.50917037567893
C         4.13020532646479    1.47486766602485    2.39262890571640
N         4.25793896959943    2.13747677100263    3.59148768055080
N         5.02804464123190    0.66683300252727    1.93972201436694
C         6.35425086675619    0.58281130994222    2.56947756840426
C         7.38550941171555    1.51776858676461    1.91659378645974
N         7.02505585036193    2.92688768528731    1.74469748768742
H         3.31382441249596   -2.78271251409841    1.07956898869316
H         4.38974172934375   -1.45787611738771    0.58995695378429
H         3.15820496631318   -2.01621521647010   -0.54906287144193
H         2.38064210976780   -0.85297683784900    2.14462040966533
H         0.79671504810467   -2.26071787922428    1.01247644848960
H         0.84835141358746   -1.32691534855378   -0.42025340355527
H        -0.98884012662514   -1.23815845629522    2.73937264209605
H        -1.03799889277818    0.53653775421264    2.61061911506378
H        -0.12842139555987   -1.58856942961503    4.53134702338550
H         1.81208676192365    2.69601285864860    3.17338173155295
H         0.71004687062196    1.85396743024764    1.87798455774765
H         2.94195058990915    2.61028951155471    0.97323615753035
H         3.68575099410190    0.59032399103060   -0.02325895190542
H         1.94044305726606    0.93006848760230   -0.19288043141731
H         3.45583956021577    2.60365549063959    4.01396913117242
H         4.98369549563550    1.80793563580744    4.21609924532085
H         6.62568841068176   -0.47536868562290    2.47349421118859
H         6.40384224155532    0.88006879974514    3.62409408462060
H         7.73949153950877    1.08402318159152    0.97469776789272
H         8.30679560059409    1.56839388998919    2.50580626152715
H         6.84958990256845    3.28569735761030    2.68642047845187
H         6.15252814660710    3.06104775703440    1.23960965745647
