39
 energy: -54.527638123510 gnorm: 0.105404532949 xtb: 6.4.1 (79825abcba525fcdf90b791dcacef51065a7a4e7)
C         2.88071626403195   -2.41829307217745    1.08596966504243
C         2.15920837834185   -1.10891270968928    1.42136439809881
C         0.70155235888221   -1.39476047556360    1.02914641364141
O        -0.04885825406773   -0.18635377177181    0.95665036316134
C        -0.51100474793253    0.13158398402936    2.25386733972574
C         0.53205572802783    0.37859625190000    3.32759654001557
N         0.55778150250165   -0.15583310042870    4.50564437268615
O         1.51630998535705    1.26703559049286    3.16726404192970
C         1.79161901099647    2.00780776181406    1.96312124900733
C         2.99428319202614    1.35788138695341    1.25704641142726
C         2.69171836895888    0.02926671104393    0.52047469175224
C         4.29585135245758    1.17660945270826    2.08396443881896
N         4.21755592724927    1.05936069386307    3.45244958870244
N         5.35509837382544    1.24306504410953    1.35065720305713
C         6.61183048655009    0.81896000777873    1.98566426924854
C         7.16313810665212    1.89270637855965    2.93804295917968
N         7.68892461610833    3.13927434934958    2.37705402635878
H         2.70661664273920   -3.33523015727738    1.65788719010112
H         3.94669849253037   -2.27723215855788    1.29517424700555
H         2.68398712446397   -2.58751903523061    0.02927810140418
H         2.32715245102678   -0.80294416644090    2.46705821473318
H         0.22870986824883   -2.03774864080605    1.76808102807607
H         0.74305006305071   -1.79612148834884    0.00865740534051
H        -1.06330047888494   -0.76862395271436    2.54928041570870
H        -1.19453878785261    0.97806184551861    2.18184014499546
H        -0.26852210926911   -0.76121439272889    4.62570893040391
H         2.03335077661785    2.99086124456498    2.39243219879632
H         0.90816491152641    2.04508021899125    1.32362267156816
H         3.24414710576611    2.01661925700179    0.40604802590374
H         3.60118080372092   -0.26219762317326   -0.02261632990842
H         2.00662443774575    0.19853582546495   -0.32320068429606
H         3.30464741388437    0.93122416483205    3.88759980371802
H         4.99677094794400    0.77933240902272    4.03543123623531
H         7.29842144049456    0.48876656496952    1.19686695691618
H         6.53494002631833   -0.07281111323790    2.61959600389452
H         7.92239541469986    1.47101123034204    3.60610588681641
H         6.35007370286305    2.25294520271749    3.57652300548688
H         7.00735994025884    3.54070302895216    1.72844052145200
H         8.39571763429784    2.82689293073922    1.71578349568257
