39
 energy: -54.516344285129 gnorm: 0.102451451600 xtb: 6.4.1 (79825abcba525fcdf90b791dcacef51065a7a4e7)
C         3.16661510848324   -0.93417860515880   -0.55389126188933
C         2.18497701342649   -0.30504799352527    0.44015174554232
C         0.71851558760049   -0.68929835765109    0.19085777179578
O        -0.11365422613656   -0.26941086726019    1.26780085437228
C         0.04286196161412   -0.84954986510122    2.54701040818605
C         1.22418353264803   -0.47681884793700    3.42304437759252
N         1.92418661395914   -1.27701910285438    4.16043739381666
O         1.56413812686114    0.79987164014345    3.61869625802172
C         1.42062440573078    1.90055224012637    2.70087037993326
C         2.56844123959592    1.98205666291926    1.67948864185454
C         2.33211625662805    1.23118264554099    0.34545752089357
C         3.95601086814986    1.68337403229752    2.30891047683330
N         4.15905094977261    2.24232469429912    3.54946598457829
N         4.88677582013884    1.23968338969636    1.53368449135785
C         6.28825501909567    1.45903621321765    1.92126035994613
C         6.95716423857511    0.32829094544067    2.71992933151877
N         7.00628784218474    0.69464803886605    4.13713118595476
H         3.21724194441064   -2.02619126426976   -0.49804123219360
H         4.09852761083682   -0.49285898694001   -0.18408194254404
H         2.95251808440525   -0.55074713375422   -1.54942107503940
H         2.48357154266279   -0.64619719684379    1.44501792564015
H         0.66905862589406   -1.76819988130370    0.06215785445039
H         0.33373330554018   -0.19451392259638   -0.70988718973021
H         0.05410792551959   -1.94586043237254    2.57251429094299
H        -0.78967982397528   -0.55332052823942    3.18580131520909
H         1.77256754723164   -2.28276699413337    3.98966709320353
H         1.46234598644429    2.82908305259693    3.28842984660147
H         0.52233992440314    2.04777956658157    2.09900003224747
H         2.51305626255030    3.07388398319761    1.52007904259276
H         3.27862756260801    1.34816580647268   -0.19993456589135
H         1.56636540286322    1.77978513323049   -0.22239351792742
H         3.30681424415309    2.18935892365650    4.10629977808191
H         5.02036681900483    1.91183416930889    3.96704292114108
H         6.35974001046500    2.41733982159439    2.44963535816892
H         6.82163259863418    1.61884980286509    0.97627078509756
H         7.99494980800629    0.09503605145852    2.45687078445537
H         6.40607039517216   -0.57851697259820    2.45067577012417
H         8.00329470375879    0.78853623723471    4.34578687325941
H         6.53953113608854   -0.06653978002124    4.62411015656891
