39
 energy: -54.526146501776 gnorm: 0.108611597201 xtb: 6.4.1 (79825abcba525fcdf90b791dcacef51065a7a4e7)
C         3.24182321708294   -2.11142263085922    0.51981423270369
C         2.31303764436418   -1.02833509662172    1.07822170289102
C         0.83895591418298   -1.28626719052701    0.73057389402614
O        -0.00702919132566   -0.17314617246814    1.00239975866169
C        -0.46190562155912   -0.08135601528393    2.33735206290157
C         0.52500954262154    0.23107558186319    3.44652721648786
N         0.71250381123623   -0.44254278240518    4.53517656960264
O         1.27382085449997    1.33676076640571    3.42352138576147
C         1.59961110986593    2.07936090472028    2.23318360331273
C         2.86317121118631    1.55878413240576    1.52624462485216
C         2.76561810909922    0.35495833022339    0.55640593480621
C         4.02864539654685    1.27775680710393    2.51286822972688
N         3.76450874375903    0.50466875554635    3.61975383125352
N         5.14966781002728    1.83587424604385    2.20307192147187
C         6.28581543080599    1.55475891745681    3.09336255321116
C         7.53028322633283    2.14677109984144    2.41166026092264
N         7.89114430461458    1.63193451095018    1.08885479085336
H         2.93299111995861   -3.12410630174065    0.79778628406286
H         4.25476211420578   -1.86383122022705    0.85542729299730
H         3.25227639381716   -2.13806770473009   -0.56789786224589
H         2.51040999099076   -1.15161164480034    2.15578587446571
H         0.44579525706828   -2.19039615237418    1.18993613233253
H         0.71969237085596   -1.46501504200209   -0.34554688706944
H        -0.92891715292969   -1.02127556016526    2.65535403769070
H        -1.29526841604704    0.61065751519569    2.21263163388298
H        -0.05724140591880   -1.11426672511994    4.67645255966324
H         1.56874873950272    3.11951239370568    2.58852660246508
H         0.79555453546959    1.87874020303594    1.52319546199288
H         3.29909950350500    2.33239362047265    0.86893140599958
H         3.79424771530813    0.19538409859793    0.20501097487313
H         2.14247390750209    0.56688005122916   -0.32482861440380
H         2.91000226799632    0.80095006253745    4.09008638221225
H         4.58093889977395    0.41761953843588    4.21247951394674
H         6.53480312981753    0.49905553390980    3.25501506683527
H         6.08090443399400    2.10127432351603    4.02200118805058
H         8.43768169368366    1.97226173040322    3.00054143390423
H         7.36156442209271    3.21355974090416    2.23277911137064
H         7.27522446579177    1.81401525081019    0.29269888509359
H         8.29851660091702    0.70282943957442    1.01654425869833
