39
 energy: -54.517215360519 gnorm: 0.124871044848 xtb: 6.4.1 (79825abcba525fcdf90b791dcacef51065a7a4e7)
C         3.20310078604187   -2.17957321670009    0.64862174855333
C         2.35636546237022   -0.98082802115283    1.08860973551768
C         0.90690221133483   -1.48968412409678    1.10926651829512
O        -0.02811335875621   -0.42125165517923    1.22247632976987
C        -0.53227798835299   -0.07041645015406    2.49533467372128
C         0.55940962443989    0.38669959120995    3.44462266292154
N         1.00543183716731   -0.24699137400696    4.48075642973671
O         1.25937723213849    1.50466584468477    3.23489854116326
C         1.49140769445692    2.00502251709032    1.90437105999147
C         2.76455462977580    1.50556320769642    1.19939988233678
C         2.54453144490055    0.30316106213727    0.24802235880799
C         3.97754609372673    1.20395274611899    2.12049456629399
N         3.87442598390334    1.63624785045834    3.42246085959431
N         5.13604524416583    0.91668396054924    1.63109042588803
C         6.41958706011436    0.65862239528409    2.30071661054721
C         7.27477231786292    1.69463011589301    3.04854189731210
N         8.03222575717990    2.63093560584091    2.21506241798660
H         2.92599055589129   -3.06981649877913    1.22207686630869
H         4.28053244876346   -2.01169781460828    0.75322436617238
H         3.08880241427515   -2.42330801218597   -0.40563916264129
H         2.73922112422463   -0.78358686382611    2.10340773828931
H         0.71253894930913   -2.17921016150313    1.92768873686820
H         0.77901437752563   -1.90509717684316    0.10165189306483
H        -1.10829813677574   -0.90145322464582    2.91989615484063
H        -1.26524036605254    0.73354838778090    2.42227194093523
H         0.53938453678296   -1.11157623385882    4.79535552833465
H         1.82574690094947    3.02362699888333    2.14890838724117
H         0.68799169359359    2.14255274383224    1.17880440718763
H         3.04509958270339    2.40670216564493    0.62510996554625
H         3.45100866499644    0.19524902884344   -0.36326748901319
H         1.66516917059514    0.49419739749376   -0.38444975510162
H         2.96677044678038    1.61268489860037    3.88590756001462
H         4.65392967293631    1.45840946475119    4.04391641223187
H         7.06495260307089    0.25305306361913    1.51226695116081
H         6.27986674127982   -0.11408126332205    3.06651331399726
H         7.97071802338161    1.07540787712815    3.62545603214436
H         6.67118953181257    2.38868226673533    3.64224377851808
H         7.40477828772805    3.16952649375138    1.61289599850507
H         8.51425775612713    2.07814454085156    1.51044590968267
