39
 energy: -54.527932425683 gnorm: 0.101457317033 xtb: 6.4.1 (79825abcba525fcdf90b791dcacef51065a7a4e7)
C         3.43168187764039   -1.38627623901699    0.16532478233590
C         2.36805718164029   -0.48201948414796    0.79664277705443
C         0.90529524291066   -0.86947895141987    0.53111005127119
O         0.04383253033935    0.02047926332607    1.23429913981061
C        -0.14127819967639   -0.44376424144096    2.55628539762192
C         0.95172216551996   -0.14008159195620    3.56376326604335
N         1.30072310454863   -0.99641436464150    4.46873053639777
O         1.52680388761251    1.06340742823462    3.63219270423157
C         1.51543698829998    2.05245220532451    2.58521632842881
C         2.61456897501215    1.98665004519317    1.51054147655553
C         2.59155409479543    0.97694819679261    0.33611701453368
C         3.97899579642434    1.66545207410492    2.17830187264048
N         4.11242309818414    0.53614549710289    2.95257112688992
N         4.94739327097330    2.46967802280388    1.89619010091019
C         6.35137799645688    2.30320591563697    2.30065093530430
C         6.96020124075966    0.90189622132172    2.12871515176417
N         6.81240763547164    0.03741949818072    3.30171505944453
H         3.13004823139554   -2.43704255587253    0.22083373248018
H         4.29718127109034   -1.16274297730565    0.79851237833058
H         3.62292879876740   -1.05732731767038   -0.85406428044677
H         2.35492552011012   -0.72081496682986    1.87279415790052
H         0.74647015513532   -1.90673471317009    0.81731494266268
H         0.62828059719790   -0.79227157198441   -0.52790479339819
H        -0.45675791739255   -1.49251334274370    2.49908703106693
H        -0.99875998697028    0.14301960768761    2.88695316610972
H         0.70958868315980   -1.83922805846777    4.53121920926987
H         1.66611057516966    2.98007971196912    3.15612872769277
H         0.52263887230326    2.07141991020683    2.13263381087409
H         2.72852907307464    2.98282645490042    1.04663258656342
H         3.52448104743633    1.05405383831165   -0.23896841736451
H         1.78607313906497    1.16841625091268   -0.38799228891490
H         3.26674017284457    0.03784611644717    3.22769792524486
H         4.89182966482180    0.51493167622248    3.59874051659522
H         6.49937019913548    2.60460572628783    3.34463010290334
H         6.90838439802480    2.97775852221892    1.63901662016053
H         8.01101404505304    1.00220235873190    1.83488244700484
H         6.48232610569039    0.33853572116560    1.32077777664354
H         7.34471054416677    0.45833562818447    4.06712873537468
H         7.24782503310180   -0.86825046759582    3.14490039961366
