39
 energy: -54.514943416975 gnorm: 0.112114509533 xtb: 6.4.1 (79825abcba525fcdf90b791dcacef51065a7a4e7)
C         3.29533662091969   -0.42596885997265   -0.51122967976284
C         2.31352187672003    0.19508454674043    0.48770608128771
C         0.95134494103351   -0.47960336103392    0.26505127048224
O         0.29554958206835   -0.80460118464547    1.48690534188513
C         1.10194440907012   -1.47058089277709    2.43750203496105
C         1.92778544579710   -0.59659975972966    3.36271991789246
N         2.91086799745422   -1.03801253924224    4.07880417823997
O         1.64716949043040    0.69724624946607    3.53880103359060
C         1.20608577838239    1.68611085998141    2.58901672263846
C         2.30433157192419    2.37059182488388    1.75673727554885
C         2.38330659077336    1.73326573314561    0.34717041974952
C         3.65992406145273    2.13246754320003    2.47534594547486
N         3.75377621897862    2.53795802750062    3.78660422586704
N         4.64247362449903    1.66340841245995    1.78343557936667
C         5.99173023747402    1.50770783203746    2.34711860500788
C         6.17750083852439    0.34055712040656    3.33055391582258
N         6.26270026660266   -1.01158629311724    2.77418984448252
H         3.59051778202912   -1.40449225945715   -0.11939554212102
H         4.17519494136432    0.22554812085770   -0.47438121417566
H         3.04834460641447   -0.51709025428247   -1.56698943961209
H         2.66743111609280   -0.02891057495178    1.50744720161031
H         1.07290228648562   -1.39101068759320   -0.31598113438645
H         0.21505512258225    0.04401765815139   -0.35777202620957
H         1.71646324431379   -2.30965497942180    2.08965860990273
H         0.29208031741371   -1.93964856446907    2.99699031821371
H         2.95805456717069   -2.06809170805811    4.05905596795886
H         0.58263863362374    2.33892573633753    3.21693604355249
H         0.41168142751205    1.30643757024261    1.94433949717717
H         2.07206040378778    3.44833375813088    1.68540559468694
H         3.34407744839166    2.01378919947518   -0.10587171718751
H         1.54128267639741    2.05856604587071   -0.28129540831115
H         3.00275627365439    3.05319219204297    4.24451188248927
H         4.34148845925500    1.96714292438789    4.38177137542596
H         6.19370432696877    2.35711446340732    3.01070799978676
H         6.51958811233497    1.45744251294899    1.38697446088222
H         5.37394487390790    0.24831808522052    4.06974015693307
H         7.15293464185698    0.51947343611278    3.79425678141184
H         6.99184740131833   -0.98357919900047    2.05729729438649
H         5.41688020801006   -1.22668501567999    2.25194641293572
