39
 energy: -54.525244144611 gnorm: 0.111147406690 xtb: 6.4.1 (79825abcba525fcdf90b791dcacef51065a7a4e7)
C         3.75767905323600   -0.86477504426925   -0.36965990174300
C         2.72803939844837   -0.28401757966729    0.60507242747564
C         1.36080055500825   -0.97661187442549    0.49888380773728
O         0.26745333639323   -0.31699193394862    1.12984490493318
C         0.01007236167153   -0.73570610241586    2.45493703855468
C         1.13696264713548   -0.53980647626300    3.45174506672343
N         1.56961490440174   -1.40637946252795    4.30961249718000
O         1.64937974782239    0.69176037429693    3.51852247054794
C         1.26294485534922    1.75502255120382    2.62709667905250
C         2.40018214884296    2.10504357325331    1.65163591210955
C         2.55863620319570    1.23614233660814    0.37915673880026
C         3.73405855931235    2.31875754119236    2.41703297136213
N         3.65931117988274    3.12525801303122    3.52905763857790
N         4.76060985763511    1.74494264307598    1.88685473194541
C         6.06818355106870    1.62259924167624    2.54848738518384
C         6.17792932480462    0.09560718875056    2.69042988482519
N         7.53471573349924   -0.40728140972240    2.91698108048243
H         3.81062997693955   -1.91993121258521   -0.08327622281033
H         4.68836858292939   -0.32242100530077   -0.17053194846957
H         3.51300468446730   -0.79864399185212   -1.42781772055422
H         3.09142398458407   -0.51981876542298    1.61880165700625
H         1.52677490925822   -1.99374528606467    0.84663414225658
H         1.10549059151333   -1.19476377274996   -0.54583486245388
H        -0.29003398696578   -1.79037801642452    2.43829004421216
H        -0.78481116921898   -0.14202361199229    2.90730055560235
H         1.03619666612832   -2.28858607211014    4.33887243518323
H         0.99443445168123    2.61846441840328    3.25280155005576
H         0.38943640508090    1.46340323847325    2.04162253170517
H         2.14889970030932    3.12657529846307    1.31415129595150
H         3.40990026178420    1.71246567226931   -0.12630029322782
H         1.62389497807346    1.48868448136133   -0.14264319777383
H         2.74842583577606    3.30532503841608    3.94981931308993
H         4.44049669829641    3.11575611097525    4.17335445937768
H         6.19864401723147    2.14389672157981    3.50445027314898
H         6.74946629155572    1.87719448798277    1.72746825741043
H         5.66883852189529   -0.24847129724972    1.78321266357379
H         5.64396970003010   -0.20813254439227    3.59659311524928
H         8.10524874014675   -0.14393778588233    2.10981499120215
H         7.47761404012000   -1.42269867032609    2.90779306003673
