39
 energy: -54.520767353701 gnorm: 0.117315147570 xtb: 6.4.1 (79825abcba525fcdf90b791dcacef51065a7a4e7)
C         3.11532473391029   -2.22375824317195    0.86715119791362
C         2.18865120874883   -1.06978067647271    1.26357537838320
C         0.76153849685215   -1.30820435690327    0.74704038522968
O        -0.09356030221677   -0.17772122432298    0.88644069261071
C        -0.58953851685770    0.23698740858102    2.14320560502766
C         0.39383651429257    0.15414109217057    3.29559211391084
N         0.37605315493328   -0.75762598302687    4.21343621887287
O         1.21512602121121    1.19687738809458    3.44382160504093
C         1.76197206607992    1.94721340919572    2.34270690381781
C         3.07330854435738    1.48278536169699    1.68540153927757
C         2.78739306874081    0.26718658502048    0.76895607891095
C         4.26890792322245    1.19660017431639    2.63375421275371
N         3.81353976839614    0.55452097861364    3.76202865592581
N         5.44945989443733    1.46303943931667    2.18713664598274
C         6.70760457808369    1.37752885500118    2.94359850056469
C         7.63929131093511    2.38409560731154    2.24884693561880
N         7.72662878134840    2.17978749552478    0.80118602698278
H         2.65934646406010   -3.15177991375579    1.22636359925295
H         4.12882258814359   -2.12951215528455    1.27202478430183
H         3.08780463729511   -2.16430476619126   -0.21896333009712
H         2.10969964028336   -1.08705566337779    2.36301420621293
H         0.31139756697486   -2.23031628864402    1.10776311309587
H         0.93390898851051   -1.47882320777622   -0.32318770099834
H        -1.44809911563183   -0.33466502915881    2.51571195641672
H        -0.98243102013821    1.23647738934984    1.95456113687552
H        -0.35494431324843   -1.48491387924590    4.19407956078214
H         1.96842634334037    2.94027223939106    2.76737982391537
H         1.05001988820832    2.05855595412403    1.52321574727096
H         3.36465267439075    2.33913669166130    1.05109341035661
H         3.71901376031941   -0.00056610735639    0.25183653837522
H         2.20019773740775    0.69737401861371   -0.05562520153928
H         2.88671291356817    0.61563613813838    4.18206859790054
H         4.43301283301284    0.71155014881136    4.54755680332353
H         7.03918492979274    0.34142109581183    2.80513829364355
H         6.63028036876483    1.57623625201824    4.01950446755348
H         8.64801413943479    2.35428447062610    2.67569126976077
H         7.32054052431346    3.43141540172858    2.25350401950038
H         6.80173021653422    2.39190604085780    0.41916084578445
H         7.78438051776431    1.17248585401823    0.67302450342330
