39
 energy: -54.521796710426 gnorm: 0.113712212830 xtb: 6.4.1 (79825abcba525fcdf90b791dcacef51065a7a4e7)
C         3.28211810681682   -1.98228104176003    0.30634449532960
C         2.38907846848247   -0.93598566944459    0.98109359166460
C         0.94915453206435   -1.11911347583460    0.47771681377579
O         0.11084355341042   -0.07930845123483    0.97234669239412
C        -0.38753384931311   -0.27707749563483    2.27999459242464
C         0.48208270456282   -0.19776591672060    3.52070459389607
N         0.26869645445317   -0.95377274954642    4.54880634190545
O         1.33444135500869    0.81265568857124    3.71128344997961
C         1.53795833074782    1.80047566554845    2.68303696379629
C         2.86008955795023    1.56485552360700    1.93217132864252
C         2.85948090997732    0.52380040786568    0.78521704317540
C         4.18436390409451    1.38846856113220    2.72332091138698
N         4.21273165142144    0.23356344460340    3.47032725081186
N         5.10622461721300    2.22256972016629    2.37892558226607
C         6.43074686719014    2.19867942799795    3.01731786290869
C         7.39945148603630    1.47493468728175    2.06773825058344
N         7.44622674186025    2.28247172214947    0.84676005377425
H         3.14554883589563   -2.92734864140222    0.84148000519208
H         4.27260369985062   -1.51510285138896    0.28054390194741
H         2.95442322830316   -2.20222732006954   -0.70764590391564
H         2.29536271186851   -1.16661387009253    2.05502351615521
H         0.62667410310000   -2.15392193667345    0.56835880598374
H         0.89305007778102   -1.01748014347333   -0.61349053567607
H        -0.92169633584545   -1.23485637717228    2.27803752616403
H        -0.99395208458188    0.62462133619562    2.37014787262034
H        -0.36995486520728   -1.74780081743534    4.38967250207545
H         1.57580794352909    2.77640384407860    3.18827737177574
H         0.69051958445984    1.80611608037358    1.99553820138361
H         3.05676159632028    2.52341701355310    1.41929144559713
H         3.88197059634559    0.42154251602024    0.39652773006543
H         2.31612221199178    1.02063627135737   -0.03191776905909
H         3.29966790752969   -0.10764372085196    3.76877138606218
H         4.92331199184182    0.20755652005859    4.19133953666081
H         6.30421725769575    1.66260977001741    3.96560875948337
H         6.66485227103809    3.25419220000266    3.20204676106644
H         7.10886770878354    0.44127458810284    1.84930198829546
H         8.41953982202508    1.51805473452464    2.46278628831812
H         7.77532384996609    3.20232397268619    1.14997912021680
H         6.60390736935685    2.37121984841193    0.28369781935014
