39
 energy: -54.517381114445 gnorm: 0.100773302598 xtb: 6.4.1 (79825abcba525fcdf90b791dcacef51065a7a4e7)
C         3.16562516179217   -2.50322269401793    0.59984236799399
C         2.47869325187109   -1.26099217914941    1.17649484737838
C         0.96866346882757   -1.53923355168893    1.22842503326571
O         0.09594058244747   -0.41595135673944    1.30060802128596
C        -0.50602486513843    0.06878800592533    2.48386666487795
C         0.38308041495138    0.83028847798919    3.44900573242764
N         0.25863531389733    0.68737388480037    4.72891278377135
O         1.29038985005283    1.69464953259669    2.98699173878137
C         1.79233060683503    1.97977093055168    1.66742379767821
C         3.06920204330650    1.28198276631123    1.16738571927512
C         2.71957364958718    0.01844383511499    0.34244349338537
C         4.19605315229296    0.95484109428175    2.18420306026429
N         3.88724874177928    0.59496462861561    3.47562003844913
N         5.36563100708480    1.10930586110922    1.66229466492085
C         6.58770979842354    0.76806296024988    2.40563265142980
C         7.31564285863425    1.99877919458110    2.97074108481683
N         7.36907002153656    3.18736009012807    2.11662590743026
H         3.09191090138654   -3.40840706663108    1.21089180222074
H         4.20585760122208   -2.18329805447982    0.47515256349242
H         2.86577218195212   -2.75635303943856   -0.41502218274454
H         2.85933827422548   -1.11864728590360    2.20126058426374
H         0.77795462430003   -2.21496177723523    2.05912333154561
H         0.72618330375630   -1.98862751758959    0.25710687369217
H        -0.87912910542976   -0.72907167643515    3.13723251718296
H        -1.38456035090412    0.63312303837974    2.16980801610907
H        -0.53514021616674    0.04065165711552    4.85280965021282
H         2.06158639736575    3.01967540263307    1.90244783824928
H         0.98439718235003    1.99610237919987    0.93406463492439
H         3.57373294654025    1.94707449847579    0.44373707868597
H         3.53640595658845   -0.25083538542223   -0.34114623553017
H         1.80689464186833    0.10399776840426   -0.26541456799243
H         2.98096142308851    0.73239366808642    3.92163930117933
H         4.62633775831708    0.25072805397872    4.07620983173755
H         7.34965604234975    0.40141753615695    1.70731674685131
H         6.39245509692009    0.09495442943647    3.24933747203824
H         8.29826432124380    1.58077223414345    3.21636636378806
H         6.77046752162663    2.37420929358092    3.84271505129110
H         6.52815720567059    3.24212439234826    1.53676266621381
H         8.10685389536715    3.05540601471508    1.42910840701243
