39
 energy: -54.527291970722 gnorm: 0.102543439659 xtb: 6.4.1 (79825abcba525fcdf90b791dcacef51065a7a4e7)
C         2.45472492699770   -2.56813695461917    0.46000637535508
C         2.05328373444059   -1.25310564081295    1.13608165983716
C         0.55666683861530   -1.16486729115695    0.80043778287159
O        -0.11450898990549    0.04678443278440    1.13216301527650
C        -0.55514279451069    0.26247549266378    2.45758933022413
C         0.65860669578258    0.33605524995816    3.36493868433107
N         0.96198451308211   -0.57414656765526    4.23302152552440
O         1.54103354385613    1.33707431479010    3.30952089558473
C         1.86997725359352    1.89769734019839    2.02422084893404
C         3.10253398631698    1.18393276606396    1.44224907679027
C         2.86249746227801   -0.06748296288741    0.56154399279023
C         4.23685072846463    1.00919021591412    2.48796566354570
N         3.83511394440127    0.25272677345573    3.56453412901662
N         5.39125997055380    1.53619602088898    2.25609447323064
C         6.58244421731704    1.64005015222660    3.11211376888038
C         7.45826146386770    2.80410392446379    2.62036231861514
N         7.97828209898383    2.60459307314976    1.26579017172380
H         1.71798632519694   -3.33683219247651    0.71397057771447
H         3.41219805861429   -3.05672009975670    0.67099110548195
H         2.42975889666707   -2.40890713941364   -0.61607884480899
H         2.22749365053341   -1.29918965963421    2.22365909607007
H         0.09065357148927   -1.96218876105076    1.37502308936540
H         0.37279866550676   -1.20883344883224   -0.28052012870938
H        -1.20867167043877   -0.54137160000853    2.81731653146454
H        -1.09491173916067    1.20921933998880    2.49304435448988
H         0.24118458968324   -1.27446004706556    4.46472860179643
H         1.98093901725265    2.98175355912382    2.17134626461123
H         1.05704243165931    1.83350841334387    1.29906184501544
H         3.56254752893133    1.93004496238253    0.76973889336969
H         3.86066862997659   -0.40597242461222    0.25154328542993
H         2.46651087813431    0.22699003903440   -0.42144844825502
H         2.90670818334410   -0.13352455848856    3.73201330664907
H         4.36209430216460    0.23460907455697    4.42907038792366
H         7.16127694247607    0.71058485027134    3.05142630642450
H         6.30831423638423    1.83656427047300    4.15579583966053
H         8.34784756802153    2.93204324938094    3.24715943429548
H         6.93463957078325    3.74959306030927    2.44608406677784
H         7.15827322082982    2.38797959922395    0.69391700916951
H         8.45680842147979    1.70739422310118    1.24424910072677
