39
 energy: -54.518451590634 gnorm: 0.111615547323 xtb: 6.4.1 (79825abcba525fcdf90b791dcacef51065a7a4e7)
C         3.66470854520074   -1.40056809092020    0.33700472783281
C         2.60742883105687   -0.49243653583212    0.97339837220213
C         1.21749412488068   -0.96953486271907    0.52533179575068
O         0.12394872822483   -0.19103195141081    1.00147274776546
C        -0.34053349757962   -0.56812596893864    2.28189925795464
C         0.58895502659638   -0.46271595481680    3.47639682354683
N         0.72320645489320   -1.39186306863538    4.36675373906877
O         1.06259314749775    0.75719946712332    3.74334383082297
C         1.30813762153454    1.70196373066497    2.68427503694259
C         2.70628294296554    1.84959213315565    2.05918096450580
C         2.80450935056187    1.02499524407253    0.75162909691425
C         4.04830681066982    1.65768512457062    2.81606685475208
N         4.12193342971236    0.66049044987138    3.76095360034865
N         4.95970014610320    2.51135297051737    2.49237950908846
C         6.38763369341391    2.29061142458409    2.76579056696140
C         6.93276680943257    1.01813586598894    2.09681196597189
N         7.10432039480442    1.14659645654247    0.64796449742061
H         3.57501784575254   -2.38502541665605    0.80708270688448
H         4.68781122624848   -1.05260677741652    0.51635543689353
H         3.68697826580392   -1.40294349595655   -0.75085337654895
H         2.78938995809608   -0.63306581466981    2.05155006699943
H         0.95062351919269   -1.98972489340788    0.79184735773934
H         1.18425284371820   -0.70242753239247   -0.53850993602599
H        -0.78248459246507   -1.57085880650383    2.23854172459560
H        -1.12794229300486    0.17004906895152    2.43687177509243
H         0.25954085872393   -2.27343769310286    4.09932139343482
H         1.02960099657531    2.62942483544995    3.20520645178561
H         0.54170290578928    1.64589975548562    1.90950186633277
H         2.72000972380538    2.88079556513703    1.66295266222318
H         3.73448587624256    1.27043906018944    0.22066560230925
H         1.93488355846330    1.33337285191956    0.15292373282414
H         3.22818034033749    0.37098767628999    4.15664312486922
H         4.92487707062596    0.57033898540679    4.37137453662975
H         6.50850637112828    2.16013084946290    3.84791840781503
H         6.96872345004785    3.17773152156486    2.48580852049518
H         6.26038024549293    0.16562363558505    2.24420850520037
H         7.92411329930480    0.82082325869171    2.51729071309018
H         7.92056818887657    0.58067756948710    0.40332144462144
H         7.25943591271241    2.02971118852813    0.16789702211514
