39
 energy: -54.522558548062 gnorm: 0.110299450234 xtb: 6.4.1 (79825abcba525fcdf90b791dcacef51065a7a4e7)
C         3.60747518203473   -1.61747058258388    0.39042378418676
C         2.53763186834766   -0.71269592744413    1.01039015421305
C         1.12350467055302   -1.23380349936740    0.71206797251835
O         0.12653194166784   -0.27294025655421    1.04584294520624
C        -0.37647474508581   -0.37915721993261    2.36232990818884
C         0.55916006304195   -0.07776393598358    3.51802633697558
N         0.51931366363973   -0.60959625713197    4.69685622500038
O         1.31739000023454    1.01878689041726    3.43770772149529
C         1.36277416040663    1.80832956212075    2.23393822663110
C         2.75680278411580    1.82444950603679    1.58296090133286
C         2.82782487162189    0.71808436770416    0.50119734387185
C         3.89281045565063    1.72835389624908    2.63699355356881
N         3.64785919178504    2.04849849443220    3.95233965751799
N         4.99163771980776    1.21631749173056    2.19590687682321
C         6.22720195455238    0.91668071312205    2.93487471057308
C         7.47418568067367    1.50548480897870    2.25499395421506
N         7.74645745240075    1.17850446735873    0.85355052843938
H         3.35725424971795   -2.65557475401906    0.63105455871758
H         4.54874888462787   -1.31744610972986    0.86368056897183
H         3.77066392458528   -1.45669182690587   -0.67327564039039
H         2.81175264063313   -0.77056796190269    2.07660127349580
H         0.93640990778291   -2.17911788782125    1.21646307639544
H         0.94225976151538   -1.43691579679601   -0.35099656571621
H        -0.73445576617455   -1.41114482692922    2.45992583055748
H        -1.28891675453464    0.20975332501203    2.26452690586915
H        -0.09566942730552   -1.43128755119391    4.79833962711816
H         1.10022743118475    2.81062386249993    2.60219309662592
H         0.53893860356788    1.63018016135446    1.54083174946367
H         2.79791356566551    2.74370086386690    0.97152598862949
H         3.85293433798988    0.85382926355015    0.13005700423684
H         2.23982726649056    1.06900079613388   -0.35956415116469
H         2.72840445626188    2.33717579206043    4.28467238034417
H         4.46564877515036    2.12920979708502    4.54408739352785
H         6.29384093725286   -0.16936234066778    3.07164376236432
H         6.13514761103680    1.21828744784371    3.98539681284264
H         8.32638873427142    1.14105212946344    2.83941273372118
H         7.40983286589828    2.59358630982433    2.35695640353673
H         6.84401122205565    1.31165099625481    0.39069237087491
H         7.97983984237091    0.19121702900407    0.78134658935775
