39
 energy: -54.524941346996 gnorm: 0.100391153104 xtb: 6.4.1 (79825abcba525fcdf90b791dcacef51065a7a4e7)
C         3.28849069525153   -0.81076194985021   -0.57276947831776
C         2.31978363979490   -0.15693664130666    0.41801771994020
C         0.92253669921575   -0.77864191940019    0.27142832070790
O         0.02938102556190   -0.53441947779963    1.35366990422870
C         0.29315066544389   -1.07095615493699    2.63429071037706
C         1.45271283107917   -0.38798129087134    3.33489440226917
N         2.39301385084798   -0.87850414087917    4.07603849479022
O         1.41813546119843    0.94491396018964    3.41223820602136
C         1.24892005616478    1.92758618087902    2.37290198637923
C         2.50881643842911    2.27705869812263    1.56180570664899
C         2.44308987854706    1.37984283350291    0.30086001786868
C         3.79979444455183    2.06315743295836    2.39748186616867
N         3.75254834933918    2.26937009398912    3.75684686569623
N         4.85586581510350    1.82399467383580    1.69628680018636
C         6.14640490605777    1.46937860272626    2.30557403614851
C         6.15283079372943    0.09918625340006    3.00301805293340
N         7.44899769925806   -0.00774884080553    3.67652230756213
H         3.17235923232656   -1.88953107930387   -0.42804698884449
H         4.29794605329254   -0.47664057026147   -0.30943389680566
H         3.12829993147536   -0.47900821678872   -1.59659329836342
H         2.71347485672403   -0.39686236078300    1.41938697494606
H         1.05121055958812   -1.85701819377598    0.21154673515256
H         0.31101836592105   -0.51760254731833   -0.60156325684259
H         0.45422077635487   -2.15220960961494    2.72159002693771
H        -0.60094123256322   -0.74184320936188    3.16458857345060
H         2.35715193050558   -1.90877470147727    4.10663519276318
H         0.91402871982744    2.80459217430205    2.94547911588900
H         0.48292561984678    1.47859480750102    1.73847461664723
H         2.46284304132996    3.29565659101836    1.13646987395378
H         3.42126763078806    1.54367948318183   -0.17173608314790
H         1.65765582332741    1.70870717421054   -0.39536943585654
H         2.95739513115829    1.87477441397122    4.25804767031447
H         4.62935782665608    2.01659751159353    4.19590343225603
H         6.49545846014869    2.16144310727249    3.08136033325549
H         6.89415100681303    1.41368366180681    1.50506722337398
H         5.89421643536292   -0.74531680053588    2.35452770169631
H         5.44552271507817    0.02744939237598    3.83552727606119
H         8.19107736194521    0.06537880985867    2.97627592818971
H         7.45824307975023   -0.87446762244211    4.20862221556368
