39
 energy: -54.518215742934 gnorm: 0.106639961429 xtb: 6.4.1 (79825abcba525fcdf90b791dcacef51065a7a4e7)
C         3.54946339869707   -0.89737449856837   -0.22009909731331
C         2.60220489199304   -0.28164387123125    0.81484887290939
C         1.22426841757482   -0.92685131715945    0.60200300215701
O         0.06290931640578   -0.31908554063204    1.15921419050864
C        -0.33754846648746   -0.72513419123075    2.45234749209381
C         0.80195026432468   -0.63146979580713    3.44967102398814
N         1.00927099295482   -1.61762786581485    4.26120266557132
O         1.45489243964624    0.51384064602901    3.66348845749248
C         1.38238338586563    1.67782671771515    2.81828010646327
C         2.55588463343413    2.07101343965957    1.90414330225017
C         2.60621459930741    1.24845653282731    0.59259180661971
C         3.92491087967681    2.00067940840986    2.63322001096566
N         3.78748799493821    1.52807242786585    3.91789375722567
N         5.00518088262875    2.26966468367785    1.98143499586450
C         6.31835327632564    2.09877072763566    2.62084734212350
C         7.03079736917785    0.73632820759793    2.61246263678638
N         7.40325372628560    0.28810794936550    1.26878611406275
H         3.21732907164052   -1.92684836278104   -0.38756343944468
H         4.59501106685638   -0.76462498961023    0.07854867089154
H         3.32894250818017   -0.41946644143575   -1.17241798609104
H         3.01678781842852   -0.61847593138124    1.77919459382002
H         1.32642134496248   -1.98301716940503    0.84099385779699
H         1.04820019028105   -0.95659803139359   -0.48073687617217
H        -0.59740658873358   -1.79049192529940    2.46501407526390
H        -1.11884917655426    0.00190508276118    2.67576316966283
H         0.44464923740009   -2.46616424897856    4.10350695039224
H         1.27712458566620    2.52027049287634    3.51709721542560
H         0.47424874089883    1.70053769615921    2.21361947357366
H         2.39026356925508    3.14467135162437    1.70316035524832
H         3.56282746984029    1.46359930647289    0.09698447126732
H         1.74490546587393    1.50468143577897   -0.04167094162138
H         2.89885928153613    1.14075368144335    4.23332968934832
H         4.60738514360851    1.32305378209899    4.47574276067594
H         6.20427496144623    2.29784800075740    3.69322340405910
H         7.02960218075361    2.70532041856867    2.04703571742730
H         6.65449202726335   -0.18009689139599    3.08061416240076
H         7.95750234400315    0.93852922702165    3.15912079258921
H         7.96108087305405    1.01470946371020    0.81353455346384
H         6.59453995484696    0.07150770300238    0.69130572217438
