39
 energy: -54.523014875935 gnorm: 0.104527637987 xtb: 6.4.1 (79825abcba525fcdf90b791dcacef51065a7a4e7)
C         3.21533827952693   -1.49495200681388    0.12972615749230
C         2.30806806638611   -0.50652621860920    0.86960141780485
C         0.92682082154820   -1.02287356691361    0.43850235702396
O        -0.13006717692321   -0.35526665028674    1.12107636743382
C        -0.26661158537260   -0.57193613492300    2.51098487123827
C         0.92443470494346   -0.51138030311068    3.44886885433939
N         1.34756361653832   -1.47818930656085    4.19741112437157
O         1.47755499442703    0.69556061157133    3.59426142330931
C         1.38327769347072    1.81332106080278    2.69081153437144
C         2.62897817718082    1.90006484053419    1.79189389620515
C         2.72618616043972    0.95177197215431    0.57099605206455
C         3.89445543484477    1.74763898076678    2.67849767702885
N         3.81594457369838    1.94571946449540    4.03762578327537
N         5.01890609096588    1.41205553037144    2.14262964241707
C         6.22056361660065    1.14193261357971    2.94607687049143
C         7.35341350676739    0.88156122471221    1.93971987595190
N         7.70117247570002    2.09873502787534    1.20307655862780
H         3.01709685440701   -2.53370708460653    0.41232512659425
H         4.20601570780508   -1.25993458599047    0.53383987294696
H         3.14127003212915   -1.35020268999958   -0.94614482330398
H         2.47206451850329   -0.73341564685094    1.93586773561530
H         0.88800874354429   -2.10700227527437    0.51722163145036
H         0.70250913207423   -0.91786456689436   -0.63054764378761
H        -0.70271725261577   -1.56883725777965    2.64763696885385
H        -1.03410134763577    0.14552169994290    2.80278137723482
H         0.85265522655054   -2.38281217661105    4.17734091942136
H         1.28298458329619    2.77671881983096    3.21133275352917
H         0.46917216304387    1.80943171863453    2.09479579117833
H         2.70115498154644    2.93555502437406    1.41358663180767
H         3.79040848822266    0.95703910981139    0.29818783190400
H         2.14316221267085    1.31352446246057   -0.28866205921617
H         2.94551115823719    2.01432586393084    4.56375832677985
H         4.62372943282308    1.88963843443569    4.64573599412222
H         6.03367148778538    0.27624355835147    3.59283017435076
H         6.52435020553230    2.05295313308256    3.47597557670221
H         7.14392822248763    0.04214346298016    1.26733585545128
H         8.21938881465028    0.58499368597730    2.54025044759581
H         7.31393830979736    2.90016375512089    1.70719615488445
H         7.22250439367879    2.13851778819193    0.30657701316663
