39
 energy: -54.518407108515 gnorm: 0.128624938049 xtb: 6.4.1 (79825abcba525fcdf90b791dcacef51065a7a4e7)
C         2.54855581103811   -2.59478329757719    0.96754895515378
C         2.00450974282427   -1.17891859868042    1.18406959605822
C         0.56285833180668   -1.09518170706932    0.65972783735213
O         0.02461178547425    0.18079041973288    0.99260063955810
C        -0.49133281950721    0.36405372691496    2.29554016484508
C         0.52479806114658    0.25938809319246    3.41732791239725
N         0.42499215597056   -0.42500923628572    4.51081422470186
O         1.61383313709454    1.02752938083517    3.32929968106175
C         2.09290614378355    1.76509023302460    2.18868960108778
C         3.22366677481882    1.13461635401675    1.35728706694597
C         2.83670774839581   -0.08216782658343    0.48036104705083
C         4.37018812587622    0.93715038035743    2.38550328301029
N         4.34000141528829   -0.28823327515142    3.01012533825505
N         5.26193208540439    1.86765075793781    2.32962987246076
C         6.47342480053136    1.72523943453442    3.15089661692066
C         7.50309866191737    2.73705646863459    2.62184599847506
N         7.74349353385280    2.83900987436395    1.18069800174569
H         1.94606725029459   -3.28447662947645    1.56713597133169
H         3.55837588437195   -2.50086214690085    1.38158407906800
H         2.46925683383498   -2.92224189087624   -0.06706177993841
H         1.96984202659666   -1.07549464106608    2.28106510015096
H        -0.09943176336572   -1.84805465160894    1.08114487189631
H         0.61421491347278   -1.34812246628008   -0.40685268167896
H        -1.27450706918931   -0.39324435384223    2.42128394984343
H        -1.05770890563127    1.29264399326151    2.21892608341800
H        -0.47676806125580   -0.92335889944888    4.55724468546370
H         2.39772869562574    2.75691750539050    2.55269256385162
H         1.16513924915430    1.93228182663843    1.63902209236526
H         3.48723149718195    2.02965363283678    0.76567257799108
H         3.77232482018679   -0.45846000222129    0.04441826284173
H         2.30573014332482    0.32976399613360   -0.39036784900003
H         3.36190063976260   -0.57496577861621    3.02685824050313
H         4.79300258648908   -0.33702356003713    3.91448640981338
H         6.78714664686551    0.67444859903938    3.15819506324853
H         6.21642304920101    1.83625529444218    4.21139786307612
H         8.39835520315746    2.50061236710379    3.20769277534917
H         7.15889772051661    3.73844107267865    2.89979759692876
H         6.86075194409251    3.20994632387375    0.82076980438638
H         7.83095656633079    1.89569020039839    0.81067712960388
