39
 energy: -54.522285859874 gnorm: 0.112068787049 xtb: 6.4.1 (79825abcba525fcdf90b791dcacef51065a7a4e7)
C         3.58571983604234   -1.36697220071728    0.15558634049346
C         2.44406214577330   -0.61335866998018    0.84567658276955
C         1.05610734294394   -0.94035563947840    0.27387294622374
O         0.04638498824057   -0.28933267121247    1.03888822617132
C        -0.22449815626165   -0.69170302637137    2.36635050274074
C         0.78619621249063   -0.48731642314091    3.47927800424375
N         1.04807602072609   -1.34596831161903    4.41105541528092
O         1.21605680534279    0.74280273959829    3.77221848717859
C         1.34447781063874    1.71227567980020    2.71480249999772
C         2.64215573634041    1.81846667475270    1.89498389938443
C         2.64423930411921    0.90634356883124    0.64305443469831
C         3.92941642022802    1.72795729016838    2.75840763839262
N         3.78833725013840    1.54763296812838    4.11495061005687
N         5.00993305404222    2.05954873578422    2.13656281783163
C         6.33764831236624    2.18948690837698    2.75524116054473
C         7.28792438833982    1.05182916543596    2.34706625068504
N         7.38019563090145    0.69391218536081    0.92986012930095
H         3.41088533870837   -2.43445785925267   -0.01198817185107
H         4.50553037215684   -1.12368664182667    0.69848924402415
H         3.67191697803573   -0.92704334635606   -0.83586184036426
H         2.41154986708003   -0.85291193106379    1.92124838358165
H         0.98457774412008   -2.02059295521906    0.16894907581629
H         0.94074715692218   -0.45600048555362   -0.70403433318444
H        -0.52318133677647   -1.74666614423992    2.34365763553576
H        -1.10612767560312   -0.09621331606983    2.60520793139954
H         0.85889124782311   -2.33080379151907    4.17024872472995
H         1.45212317591457    2.72078469419764    3.13960638323596
H         0.40550264208765    1.67644905166995    2.15993234769082
H         2.66377430778007    2.83134529553654    1.45433059705964
H         3.64767699349736    1.06723351932112    0.22562365369972
H         1.82899579846246    1.24556739069824   -0.01276496810185
H         2.92605433896701    1.15715878518029    4.49333496505932
H         4.63661898003712    1.50793513456703    4.66658606901204
H         6.36790762616986    2.38735699954217    3.83346555025637
H         6.68877286236854    3.05794038110848    2.18468228183188
H         6.95323564674357    0.19943106647165    2.94873680738842
H         8.31980841693139    1.21248881789180    2.67555723707264
H         7.58236898847184    1.55756056353930    0.42033850773226
H         6.41304078638486    0.54361146422917    0.65338511169890
