39
 energy: -54.525003766767 gnorm: 0.099988763273 xtb: 6.4.1 (79825abcba525fcdf90b791dcacef51065a7a4e7)
C         2.90133246479075   -2.58598745592189    0.69400510669372
C         2.22553354750729   -1.32092725700046    1.23294730595846
C         0.69914745205314   -1.45511892491006    1.12139900344831
O        -0.03333118659836   -0.23460949375258    1.07189867162929
C        -0.58407249166601    0.29458914778930    2.26104478810066
C         0.40150882709356    0.61872217528440    3.36804607504429
N         0.06405977040606    0.45050514559451    4.60574733197415
O         1.61819460541145    1.12978240540233    3.16242371776084
C         2.06155556824071    1.86667720172913    2.00703831170156
C         3.20197758422168    1.09967815269955    1.31530340673618
C         2.76454621323736   -0.10469614845726    0.44499504679266
C         4.38060017662681    0.82190634790744    2.28711831051485
N         4.08280981442572    0.70068759241872    3.62474903541904
N         5.54816785674898    0.99647330917829    1.76704892752093
C         6.82064768640663    0.98238326631745    2.50398256263389
C         7.28709977923269    2.41048170951898    2.83086755772180
N         7.18803058797311    3.29890472021586    1.67070309157642
H         2.55905428670342   -3.46220472079621    1.25370404791584
H         3.98580337821456   -2.52906536793998    0.83776032105995
H         2.71256755281268   -2.68314187463193   -0.37317138472231
H         2.47803054418092   -1.19813334423825    2.29899816425293
H         0.38347380838472   -2.16851166941325    1.87932980553006
H         0.42026992753766   -1.84022574698221    0.13239415351814
H        -1.23265145892013   -0.46919297010623    2.70675320050636
H        -1.18583044265341    1.17482897776807    2.03301698650670
H        -0.87952718250139    0.03516924378326    4.57712188920118
H         2.39597662620667    2.82871776484933    2.42149794998401
H         1.28473939917618    2.03250669953691    1.25877630537686
H         3.70725084178905    1.74084839897100    0.57088050179416
H         3.72247921839250   -0.43654117819459    0.02159869534747
H         2.06917557962790    0.36291292339669   -0.26746218340122
H         3.11165868335904    0.63295456809977    3.92716323444149
H         4.79453679867992    0.39486662742465    4.27695891554330
H         7.48205349356843    0.57846415787654    1.72807808467852
H         7.07120862891294    0.44134459562464    3.42459848249189
H         8.29986007083923    2.40804175661727    3.24909855733972
H         6.65830394456870    2.77752997149345    3.64842114800781
H         6.30337471151814    3.13657976874359    1.18345627439006
H         7.83179916068609    2.97178467570470    0.95448263940993
