39
 energy: -54.528092266418 gnorm: 0.106481537578 xtb: 6.4.1 (79825abcba525fcdf90b791dcacef51065a7a4e7)
C         2.53516650750495   -2.76647160888140    1.29009327413283
C         1.98721132149917   -1.36209992179529    1.56400102472371
C         0.56715115590845   -1.31594925584912    0.97953186855706
O         0.06196013764699    0.01304606348455    0.89484419949169
C        -0.53977495488818    0.44749699841691    2.09759228442078
C         0.46536792085383    0.50998544932794    3.23234671802082
N         0.51207772072676   -0.34970166653374    4.19817771190916
O         1.44570422475106    1.41696782036620    3.24288858399895
C         1.93681742075079    1.93244687928477    1.99085523679034
C         3.06510276061152    1.11318320414563    1.34037363105082
C         2.80753464737190   -0.30914023822000    0.78363760547229
C         4.32114594211288    0.97759313684473    2.24298290217367
N         4.12982492781823    0.11384737392649    3.29653337739158
N         5.42386484222498    1.49043571547653    1.81267648354585
C         6.71816958683462    1.30939975901061    2.48682472539852
C         7.49279418502594    2.58509687380287    2.85621628501470
N         7.68007377639421    3.37834563420423    1.63934550280763
H         2.08246116082810   -3.45946615663196    2.00632673984730
H         3.61563643120910   -2.88324035923571    1.42768923504382
H         2.32747464732201   -3.05058593086550    0.26049141878010
H         2.04337187643579   -1.15942639551963    2.64615948980551
H        -0.15191100935408   -1.91551361733750    1.53316562931759
H         0.59821345698400   -1.60028744013523   -0.07990074669735
H        -1.32665840251987   -0.26258419064888    2.37914678661225
H        -0.92724690675713    1.44219589399242    1.87539626436539
H        -0.27198198705070   -1.01565713804621    4.12446644558657
H         2.28945891931368    2.90691274974043    2.35854604048173
H         1.11592063334269    1.96025721623308    1.27238890617514
H         3.46636737001378    1.79203775103958    0.56661072760348
H         3.82261953514604   -0.61397390126681    0.49432749291662
H         2.33989957916458   -0.19906752295894   -0.20580431168435
H         3.26348505861776    0.21657303605286    3.82386563721463
H         4.90331340979139    0.06366409529291    3.94819027613560
H         7.34912035147606    0.92640005813872    1.67574617749942
H         6.76714112287503    0.52002331741921    3.24677467824338
H         8.51803508741955    2.34360492909540    3.15815877007588
H         6.98375147696736    3.21365110630751    3.59398155864059
H         6.79767252880535    3.80206288182301    1.34234953827673
H         8.06682248782515    2.92896042793467    0.81297052421144
