39
 energy: -54.517837052272 gnorm: 0.113742242507 xtb: 6.4.1 (79825abcba525fcdf90b791dcacef51065a7a4e7)
C         2.81873570208185   -2.49280887549115    0.84788448059564
C         2.14592488724991   -1.18813455668074    1.28684998119384
C         0.66386395919477   -1.37084464225008    0.92571650879712
O        -0.12315696956119   -0.18374252516844    0.92798369573193
C        -0.52376627185379    0.29882731044717    2.19450421534912
C         0.56321423835264    0.45107123876034    3.24196771656032
N         0.51121940943200   -0.16107328074626    4.38067263003489
O         1.61956010402689    1.26759700198513    3.20723277123657
C         1.98776548406298    1.99015113359541    2.01692244252947
C         3.17283618970071    1.25895752138035    1.36246811303802
C         2.68664410738042    0.04676232269848    0.52970140927591
C         4.20491829055495    1.00668974591795    2.49467839925263
N         4.06709034880903    0.05313216018213    3.47669695378547
N         5.27573181362279    1.69407648949741    2.28250402118909
C         6.46639177535279    1.63438534236139    3.14345725903110
C         7.55820158912922    2.56301477546883    2.58713429564134
N         7.57918572820229    2.47548912020835    1.12528934131133
H         2.55496521698879   -3.37620282956140    1.43798125551200
H         3.90923964364575   -2.39526605852666    0.81225584528507
H         2.62554990987322   -2.62319545595078   -0.21494919805049
H         2.21081796541774   -1.03968746038675    2.37728561087307
H         0.25049699099588   -2.21853227625050    1.46755743261350
H         0.65170193553826   -1.78367449850839   -0.09096147891616
H        -1.25826722189909   -0.44303760381009    2.53038901210838
H        -0.95191857444592    1.30007881387566    2.13871434741825
H        -0.27407215725453   -0.81668773842987    4.51169363385659
H         2.28040711364037    3.00928937534077    2.30822026129165
H         1.20302826249284    2.05529658304211    1.26142102532251
H         3.59298556113725    2.02590643759812    0.68731651833040
H         3.51054063488608   -0.36856084014745   -0.06672328614398
H         1.93182249615553    0.40473615443415   -0.18576552970919
H         3.32031261764004   -0.21021653703159    4.11868379512734
H         4.91707834705643   -0.04706960885419    4.01793582344082
H         6.75223925563607    0.58606834722781    2.99527241396627
H         6.17207471590464    1.74104450831731    4.19466542495841
H         8.55585015735627    2.37206103955461    2.99803639997685
H         7.34690595774095    3.57743052456013    2.94042928494344
H         6.64697751061208    2.81678280227076    0.87854791067355
H         7.69877461744396    1.54260013961900    0.73820552229819
