39
 energy: -54.522539065809 gnorm: 0.125908902842 xtb: 6.4.1 (79825abcba525fcdf90b791dcacef51065a7a4e7)
C         2.44122855408904   -2.77305811411116    0.85727284980237
C         2.00578633389282   -1.35434410037377    1.23829880316866
C         0.58345147897453   -1.17512585244683    0.68589560163273
O         0.00104921383719    0.11102880660224    0.87359828663741
C        -0.61734958820843    0.30530492546061    2.12949453442515
C         0.27359014831412    0.45984223499477    3.34778399623194
N        -0.25038031654532    0.45526593645591    4.53079171112585
O         1.59691088627928    0.63682622158238    3.38364906127967
C         2.08072252540496    1.51388657995966    2.34866609250787
C         3.26578983335107    0.98714985368632    1.52071019627599
C         3.01431071958206   -0.30835556123595    0.70970820146567
C         4.48951161310590    0.86578993535707    2.46860752491132
N         4.55162474109472   -0.20554660393545    3.32942632207617
N         5.47029349899249    1.66678611840326    2.22237174558998
C         6.79443143391634    1.64092291389443    2.86148398162180
C         7.44873901572532    2.99896608349581    2.55899950103863
N         7.51045842245164    3.37930608409127    1.14598006068811
H         1.65198515034495   -3.48132695247216    1.12861036949961
H         3.29191288520296   -3.08688429331152    1.47195336871494
H         2.69643316226358   -2.85409081355491   -0.19735558733357
H         1.83432437535778   -1.23632346145671    2.32087416915642
H         0.00019803966677   -2.03838577398043    0.99836301434644
H         0.63572390812272   -1.23448655312682   -0.40861544293147
H        -1.27233024078505   -0.56152617136645    2.27875263878432
H        -1.26779174783765    1.15067898043002    1.90322219373422
H        -1.20715847515160    0.08965433289765    4.65155334347883
H         2.45602763582706    2.43636490589640    2.81483783694713
H         1.27704160407985    1.75929879522771    1.65245590278294
H         3.60942606728084    1.78827433915145    0.84197645824290
H         4.00085217633174   -0.78857167490116    0.76583006520413
H         2.82438895767851   -0.09010685292518   -0.35146618060976
H         3.65748630559248   -0.67753932239612    3.45948769738686
H         5.04602232249132   -0.14401014332360    4.21104062614958
H         7.36066208388052    0.82645436174173    2.39387317241507
H         6.62133568502190    1.58477265942578    3.94311345740858
H         8.44929691270860    2.98476354562958    3.00541714653252
H         6.95238677131904    3.87798962311836    2.98262028382292
H         6.72120874352441    3.00543260290301    0.61336534570747
H         8.32488606819454    2.93501736107484    0.72916790191296
