39
 energy: -54.522202006141 gnorm: 0.109614997980 xtb: 6.4.1 (79825abcba525fcdf90b791dcacef51065a7a4e7)
C         3.57416087825092   -1.29449712016151   -0.11046421554079
C         2.65318201861279   -0.44590234893895    0.77227301984107
C         1.23084940269431   -0.92994019979319    0.45136457557021
O         0.18667419868082   -0.35857489765788    1.23357832510019
C         0.06424688417720   -0.93117909567110    2.51987986948203
C         0.97349969570892   -0.36422442905436    3.59398709957595
N         1.40865295557148   -1.08251905417564    4.57824707948189
O         1.14988042603140    0.95830868287288    3.65384864892168
C         1.23760454900105    1.79081349441129    2.48178272691835
C         2.63656449483966    1.89957120007110    1.85056967867774
C         2.87007608736638    1.07061379653833    0.56309064336761
C         3.82625711670573    1.81098141556177    2.84430803533479
N         3.58987460287730    2.04088550463390    4.17993390754431
N         4.93984222981696    1.78158205457931    2.19375137424715
C         6.22203340090752    1.74875334595705    2.91304458986472
C         7.02190164381893    0.67660789547020    2.15501328308445
N         6.98133308213277    0.77230158425393    0.69409280129527
H         3.22940094885856   -2.33195946554058   -0.05581602519749
H         4.58793306617141   -1.39692066079993    0.29172754720405
H         3.66215022974073   -0.94538159395077   -1.13726169177635
H         2.80643275036805   -0.76283429465773    1.81695759657018
H         1.10644763442755   -1.99432412810593    0.63750756735311
H         0.99262050576071   -0.51592247200084   -0.53658625657257
H         0.13213933929099   -2.01998312381007    2.63199671929090
H        -0.87957054263718   -0.60340624346637    2.95657782236043
H         0.98375728656213   -2.02226502064220    4.57368075769638
H         1.01829278451092    2.77108377765976    2.92911796261658
H         0.53814550556424    1.59962178345449    1.66628191183016
H         2.69822416193452    2.93823427624632    1.47916301916392
H         3.90004181429468    1.31314948058456    0.26750939840967
H         2.10632981394580    1.40442234685233   -0.15458431801704
H         2.65062293028847    1.79208171939270    4.48828372750125
H         4.31198870247521    1.70730286112248    4.80661831599653
H         6.10832903024848    1.25762474363938    3.88695426727435
H         6.68018359949020    2.72852654747703    3.09519887663077
H         6.50962649934378   -0.26586494824036    2.37845377109793
H         8.07154293589193    0.54715446991434    2.43785152834576
H         7.13838742746230    1.74549864847630    0.42096960907343
H         6.03359401733352    0.52064982181069    0.42413115302286
