39
 energy: -54.525147617412 gnorm: 0.097369205072 xtb: 6.4.1 (79825abcba525fcdf90b791dcacef51065a7a4e7)
C         3.56623817354039   -1.71110090303628    0.52008075725877
C         2.56384797173575   -0.75979516312487    1.18172376100854
C         1.15743756991862   -0.97691322871850    0.60278119770043
O         0.07982847342548   -0.10975801595796    0.94251491250549
C        -0.52069085951054   -0.28364078560396    2.21002310076712
C         0.45284793156868   -0.29513528821767    3.37362730349223
N         0.61005880283829   -1.34967808964420    4.10663308755598
O         1.17794584127516    0.78903864556923    3.66100741693351
C         1.46626565923177    1.82216683246795    2.69974982026306
C         2.85172757696595    1.71274118946547    2.03954651093948
C         2.89842921716888    0.71423571313003    0.85628571733350
C         4.05268955023264    1.43930442221043    2.98487993707257
N         3.90457857933222    0.98444881386442    4.27476309352403
N         5.16122092269858    1.71795775898253    2.38682425420323
C         6.56127106813797    1.68807474681233    2.83564630341380
C         7.30022546067125    1.25108101088579    1.56015447207236
N         7.04850486655946    2.13244403155513    0.41782014595929
H         3.28560669046283   -2.75820101322910    0.67174250116711
H         4.55937503552488   -1.62376898877663    0.97399171785053
H         3.55749313944648   -1.41875583828938   -0.52796252890113
H         2.56550008976767   -1.05643801656219    2.24346657730842
H         0.84727006208687   -1.98155784860911    0.88121156999190
H         1.20503493759451   -0.90883580917647   -0.49143564306344
H        -1.18047293838084   -1.14377726294723    2.37593465961375
H        -1.17324865848412    0.58990660285174    2.21386502902469
H         0.06063746976125   -2.12854056048946    3.71269258688658
H         1.25780263092780    2.74803331850911    3.25513320365744
H         0.66467678141581    1.79173257195851    1.95990669789132
H         3.03700106907125    2.71395737246443    1.61082084193934
H         3.86203604443129    0.63772055620611    0.33414727926791
H         2.10540365532492    1.07356345711714    0.18413401577240
H         3.05780543080587    0.54131126033190    4.62941922213537
H         4.73781494487453    0.94830536373461    4.84910646178428
H         6.81546394236881    1.09939117913642    3.72529436716413
H         6.79285450867325    2.72241010064985    3.11770445883043
H         6.97138404562541    0.23642924580805    1.30925278994946
H         8.38595593062666    1.19815741456132    1.69011963507636
H         7.77762012040900    2.84617891475138    0.34468783930509
H         6.07288475741950    2.40880173827515    0.49661771285820
