39
 energy: -54.524197441322 gnorm: 0.118001791063 xtb: 6.4.1 (79825abcba525fcdf90b791dcacef51065a7a4e7)
C         3.82288213915130   -0.64193821879399   -0.19685721180655
C         2.68556305665644   -0.09325936314739    0.67089677966580
C         1.49052125078968   -1.05100493956430    0.54881717808174
O         0.23668186223143   -0.59119668888658    1.04387441919159
C         0.03977119220781   -0.82609572483350    2.42354260838662
C         1.16440226601910   -0.47180714588235    3.37830392420924
N         1.62869190787141   -1.24298137651921    4.30771162800511
O         1.52266473121078    0.80413921894657    3.54382217934208
C         1.19205429969081    1.82195463562222    2.57984767403492
C         2.34554151085585    2.26406218884768    1.66259347610058
C         2.38163353185370    1.39477340271922    0.38105741033245
C         3.73057732336371    2.27457532609091    2.36423290158905
N         3.80331244846156    3.02625535376194    3.51415280539054
N         4.64614288496850    1.57850817814002    1.77994674674891
C         5.94998394845245    1.38154680048919    2.43085330349819
C         6.13142826859397   -0.09373929916146    2.82392507229769
N         7.57165264267046   -0.35987331937317    2.82818902934075
H         4.04436725952756   -1.70261226863411   -0.04165138219245
H         4.76142437742903   -0.08582169636631   -0.09758120896548
H         3.56790499924492   -0.45883100853304   -1.23868025078156
H         3.11874303571836    0.00371334286108    1.67997998474845
H         1.76180859129596   -1.96461151409167    1.07299688550133
H         1.37980277772504   -1.22815686613987   -0.52847997031292
H        -0.13798534876968   -1.89821806728291    2.57061431169859
H        -0.83143671339411   -0.29785308933462    2.81198562573943
H         1.23284475966195   -2.19398257381132    4.25690393143537
H         0.79341303637907    2.63077881614943    3.20915274115959
H         0.40118972158237    1.49988694607630    1.90040345822952
H         2.27514656961702    3.31288056481003    1.32260764105962
H         3.13897119905398    1.68921936745484   -0.35837646682137
H         1.38909534363093    1.52636098182792   -0.07429577280787
H         3.00366505800708    3.36465876738603    4.04821629080914
H         4.58032162793542    2.73312438666532    4.09362711296023
H         6.09476049439435    1.87288640406324    3.40052396305030
H         6.66500298790270    1.75380786733662    1.68707457899943
H         5.67073977961083   -0.68495977900067    2.02465603425691
H         5.75504838285460   -0.24100423464605    3.84135011900281
H         7.96009079406736   -0.31179102021150    1.88310767492609
H         7.64577903539144   -1.30372813533964    3.19975409839489
