39
 energy: -54.518433307610 gnorm: 0.119829603666 xtb: 6.4.1 (79825abcba525fcdf90b791dcacef51065a7a4e7)
C         3.50168173953935   -1.52345771856858    0.39447030329258
C         2.53270673398861   -0.49587819454354    0.98836249451075
C         1.16931181821749   -1.03887053442437    0.53380934912624
O         0.11886200146688   -0.23234017002374    1.05791092708066
C        -0.46538389315892   -0.54239258663967    2.30689447439253
C         0.52651541581210   -0.36119496505601    3.44055569147836
N         0.80976062171979   -1.29861701190345    4.28618283534195
O         1.12329547099862    0.81969654857633    3.62258907423065
C         1.50173456514187    1.88163721968732    2.72617169107142
C         2.79989448852162    1.84486670904137    1.90108031313151
C         2.86154536555608    0.97033910598288    0.62409130330761
C         4.07905400520738    1.49958430821289    2.71056385361078
N         3.94511178561502    0.52760571059479    3.67490100492077
N         5.05829410147668    2.30611013859990    2.47654461024152
C         6.42418372437826    2.07621275301791    2.97047514856058
C         7.13231275804877    1.05773827425654    2.06209222366174
N         7.16724943095797    1.45510418098146    0.65284721005837
H         3.39582532079726   -2.47161703034820    0.93109148159923
H         4.48992550278374   -1.33310204264507    0.82704611038041
H         3.54280213419139   -1.50202041683186   -0.69262968760031
H         2.58920474416386   -0.61853562335492    2.08246515963452
H         1.04013523113506   -2.08294613624155    0.80995732270384
H         1.02020330951575   -1.00357177875287   -0.55280520088139
H        -0.86461514113216   -1.55952042967746    2.40037783464420
H        -1.25161241776745    0.18650974090449    2.50558410516562
H         0.30395420202572   -2.15446908843424    4.01167099870436
H         1.61052668634208    2.75006141298579    3.39185928162613
H         0.62717276970122    2.00697913803562    2.08564857282433
H         3.04386022104908    2.90353365253919    1.70040440148156
H         3.86585631628271    1.07298897313099    0.19068186192879
H         2.24873454113155    1.31820673041784   -0.22044694926857
H         2.96349461915199    0.38538684104499    3.91022667590938
H         4.67451907485689    0.40968422395298    4.36737412817414
H         6.46214465919317    1.83455719155862    4.03949226702931
H         6.92739235220812    3.03655220484461    2.80444342215329
H         6.64522006376702    0.09681009615304    2.26200289898262
H         8.15901629279424    1.10262035583520    2.43940900918764
H         7.58088881463546    2.38953311879167    0.60680492857112
H         6.21806903383993    1.56453106027630    0.30427932931885
