39
 energy: -54.521526867147 gnorm: 0.100901111352 xtb: 6.4.1 (79825abcba525fcdf90b791dcacef51065a7a4e7)
C         3.43271934989816   -0.98127263877648   -0.27237678443861
C         2.37876984876750   -0.26409104908353    0.57755332330127
C         0.96436465152829   -0.80777688440918    0.32423810436362
O        -0.04345109146362   -0.18673563303124    1.11621898022720
C        -0.15791364764082   -0.61618383802036    2.45782556884948
C         1.04753513562440   -0.57288973760821    3.37809914911349
N         1.45306823398038   -1.55553257751679    4.11568249720272
O         1.58286675556236    0.60383615991592    3.71354455857245
C         1.43983865437783    1.73531600739304    2.83388859151216
C         2.48099292609302    1.99345110818446    1.73084230383956
C         2.37488841927395    1.26760723510078    0.36658690080698
C         3.94568606134774    1.82671589124350    2.21829073219166
N         4.19725946063828    1.94419962246992    3.56570953971975
N         4.91269623650912    1.70751530636390    1.37280707343749
C         6.31231475638401    1.59053430697783    1.80853414794900
C         6.59041968676981    0.36340988656091    2.69211766172503
N         7.40321121258073    0.72739263735773    3.85486364966866
H         3.69060468300207   -2.03624267685207   -0.13560207844622
H         4.34340306040513   -0.37477647653254   -0.21945768580440
H         3.10411384109920   -0.98748561155157   -1.30964080808742
H         2.53465974061818   -0.42761397807853    1.65656032415724
H         0.95452225123140   -1.89244591230551    0.40445273116245
H         0.73310674270601   -0.51928757263519   -0.70896285951977
H        -0.58754104788550   -1.62517900631486    2.46260399431247
H        -0.87426777484278    0.01305222937516    2.98681537023171
H         1.05603891334878   -2.40904148743426    3.69429203085701
H         1.58030296656050    2.58846643771337    3.51325624586107
H         0.41765432272496    1.89957498408457    2.48892920531140
H         2.32070635579424    3.06510674289450    1.51537023629273
H         3.20314021529810    1.59875716060585   -0.27478656092282
H         1.47546823012520    1.65022334335504   -0.13783563803370
H         3.48511039514353    1.99095645165521    4.29360660134430
H         5.16219106159737    2.22430171158954    3.69184172252640
H         6.67461614861398    2.43771864896343    2.40322098485700
H         6.95095632928209    1.54143533590585    0.91816144665940
H         7.07111478659480   -0.48626685771290    2.19453532613002
H         5.62078449768543   -0.01985855787303    3.02590712099432
H         8.41736104790516    0.65553163169159    3.74212067932593
H         7.08285195060942    0.21056714777929    4.67014187914430
