39
 energy: -54.517048057193 gnorm: 0.126138165125 xtb: 6.4.1 (79825abcba525fcdf90b791dcacef51065a7a4e7)
C         2.75214048671662   -2.55653857384576    0.87226816793161
C         2.19754008726524   -1.16589275749986    1.19794093095231
C         0.76571219171940   -1.13099585671315    0.64210283940938
O         0.03496776301307    0.07745080629524    0.82727232615814
C        -0.60592391406799    0.21927765699452    2.07890273266678
C         0.31758054455575    0.20566336133648    3.28257991914551
N        -0.03977164401181   -0.44086538124972    4.34482906092281
O         1.39321393449136    0.96429048844689    3.50904204489878
C         1.87855177711219    1.83439079284315    2.46891178711416
C         3.09217542809919    1.28847844820047    1.69661365287291
C         3.10077841321404    0.02462106838991    0.80113010721773
C         4.34442197450197    1.19541609904699    2.60982261106418
N         4.15918049457449    1.10400079098342    3.96995418090282
N         5.42374742868546    1.09886461541009    1.90989799160214
C         6.71719757755021    1.13133852584959    2.60875907743881
C         7.21972348711261    2.56018117914597    2.34461342826837
N         7.63072010640305    2.60251579842231    0.93948663408082
H         2.18303673654823   -3.36651923180140    1.33941503573717
H         3.79708555472571   -2.72355385163964    1.15542631437432
H         2.82801319782881   -2.83602181369194   -0.17657370541956
H         2.20312981262868   -1.14923282213650    2.30020618973486
H         0.21573614477762   -1.96748010723073    1.06737756881911
H         0.81954461982625   -1.22422880621561   -0.44996868219408
H        -1.49322806789129   -0.40719488099481    2.23022119360970
H        -0.88810539090488    1.26989840694332    2.00473313104264
H        -0.84286425997165   -1.08385262970645    4.27210141573423
H         2.04620005799253    2.78568969440508    2.99432659860001
H         1.08481492182969    1.98367857257313    1.73506318423216
H         3.39097972957831    2.06578087922488    0.97060902333598
H         4.16280181412728   -0.25340679259904    0.84388554577318
H         2.87442481440966    0.31581551482934   -0.23509558860701
H         3.25557174949771    1.05632915749962    4.43941693459564
H         5.05256653508764    1.00898621136226    4.43717266813572
H         7.43802803979051    0.43394587145742    2.16526952894397
H         6.77992888757032    0.92606024862976    3.68438118991245
H         8.03889066328340    2.77212069695796    3.04078389236753
H         6.34437569193641    3.20980106969137    2.44591862854104
H         6.91674473263450    2.04397411476918    0.46551909777162
H         8.51527469313569    2.13437690581392    0.75830607022109
