39
 energy: -54.522870318522 gnorm: 0.127620473718 xtb: 6.4.1 (79825abcba525fcdf90b791dcacef51065a7a4e7)
C         3.53155693969625   -1.82957312284462    0.67395283919040
C         2.58391475306519   -0.78950298722535    1.28039210895453
C         1.20320026453050   -1.32081257056571    0.86609439872565
O         0.22381028440025   -0.28968772578172    0.94480492389464
C        -0.57573647042251   -0.10262486802465    2.09509539385618
C         0.29568764067671   -0.02038100976938    3.33434540872752
N         0.18961675890086   -0.72033900319629    4.41734172790338
O         1.26571757056172    0.89341945349419    3.42265208015642
C         1.52934753742401    1.88779221992039    2.41457451711537
C         2.87854531577824    1.68320545211011    1.70383074061046
C         2.76001538051943    0.59268900494606    0.61020153064625
C         4.10567786772790    1.57736714234423    2.64917541183695
N         3.77245183350670    1.79983862043497    3.96526655422193
N         5.23385746656204    1.23050999302880    2.12854024154159
C         6.45726095963473    1.10725872666772    2.93511798755625
C         7.50367396749073    1.83237626508973    2.07307338043313
N         7.51899390300150    1.36011800895706    0.68677284169087
H         3.20635188647274   -2.86481382602150    0.81780106793890
H         4.51620562713056   -1.69143171868360    1.13369925256728
H         3.72057811897984   -1.55285561527484   -0.36124533268762
H         2.79181157291026   -0.80852013810133    2.36284985695912
H         0.86800776000734   -2.08536949070530    1.56332955777784
H         1.26414174817806   -1.62491166746764   -0.18653108641989
H        -1.32354532127429   -0.86660256538890    2.33962308781437
H        -0.99403947482898    0.90269661085251    2.03779965673261
H        -0.57727336292186   -1.38766071529715    4.24344250028422
H         1.51621121734362    2.83020005033821    2.98099415524137
H         0.76312019145359    1.89797850910692    1.63763776772726
H         2.98740279078438    2.64941454698061    1.17927774753281
H         3.62885055597699    0.64704761256487   -0.06001620315570
H         1.84957205458913    0.87728367107116    0.06257693442866
H         2.85433476617596    1.42117995205171    4.19516936212272
H         4.39524272184104    1.61063017706235    4.74101855379875
H         6.68099961545359    0.04740274260358    3.10623885084853
H         6.40107056469735    1.67437046920890    3.87227551191831
H         8.54256399488181    1.76883348480595    2.41552974195665
H         7.27981965835947    2.89829495931460    1.96257862884980
H         6.58549988337710    1.43575245481952    0.27538103654494
H         7.64670304146022    0.36126366405091    0.82959304350162
