39
 energy: -54.517781129265 gnorm: 0.110254655396 xtb: 6.4.1 (79825abcba525fcdf90b791dcacef51065a7a4e7)
C         3.07447674052217   -2.11719093932150    0.64133427235094
C         2.22178303713771   -0.95243547937759    1.15494728959282
C         0.75106534324809   -1.21452396991082    0.79633326189945
O        -0.05676649027541   -0.04866299448063    0.92592658012621
C        -0.63315529823321    0.04401790268307    2.21302481544202
C         0.36134686983285   -0.07432443781462    3.35269368179114
N         0.24560289790100   -0.96654472476240    4.28254287214026
O         1.35011448439703    0.81750317945466    3.45646985728979
C         1.63035290546136    1.80919567698777    2.45023393895152
C         2.90120156780180    1.55631138323962    1.62057119067811
C         2.69768975853102    0.40967090580127    0.59924908362574
C         4.17281405207385    1.40701401839092    2.49889036414006
N         3.99828002005370    1.11756102032794    3.83245097028776
N         5.30781379311950    1.74853609398737    1.98967690701251
C         6.44905919519146    1.85176034325913    2.91129414910050
C         7.74225079228173    2.21931489106669    2.16533458036148
N         8.20927981204958    1.24715907227904    1.17443160741642
H         3.05330832455804   -3.03331324679674    1.24003767297799
H         4.12998743307629   -1.83879832784319    0.54980517671322
H         2.87794506070938   -2.35093729430256   -0.40301948652805
H         2.45900947707163   -1.04721171316648    2.22734580998699
H         0.30007462095231   -2.02335917046955    1.36679898578178
H         0.71289596789773   -1.42760854693718   -0.27946811008407
H        -1.37354186812703   -0.71978438530642    2.47968485175373
H        -1.13807524046682    1.01037843873794    2.22462796534079
H        -0.51600069852433   -1.66198245523909    4.28498829999401
H         1.68550281298488    2.78628990809039    2.95161366229646
H         0.71499914382122    1.89479396143424    1.86232304060442
H         3.21436789457019    2.39735893249886    0.97626407005514
H         3.63999029577552    0.27112433020866    0.05162168499104
H         1.90851493071778    0.66148283567559   -0.12434451842391
H         3.15049386632691    1.58822491578970    4.14695181527428
H         4.81269526784775    1.34520109564213    4.38955715967392
H         6.58049829024406    0.84474933791804    3.32516447759859
H         6.28645057348756    2.50872502476138    3.77442401069900
H         8.58923219661282    2.26963700199087    2.85865753560565
H         7.68971750439225    3.18726338742346    1.65659253776735
H         7.49842102811801    1.40657965463235    0.45635101367024
H         8.16408662433334    0.27988418416857    1.48548482140497
