39
 energy: -54.520958073788 gnorm: 0.104307665785 xtb: 6.4.1 (79825abcba525fcdf90b791dcacef51065a7a4e7)
C         2.58440058658374   -2.68803171367015    1.42661417154413
C         2.02299810267048   -1.26311850934018    1.47122127246539
C         0.56749939221917   -1.35245200742986    0.98764296226919
O        -0.08048311200895   -0.08505640652958    0.93819010978139
C        -0.65075839591963    0.43968307900896    2.12008276835970
C         0.28516626315434    0.40615640610337    3.31373498408201
N         0.08572348829823   -0.20831486447963    4.43477060987742
O         1.42467581241703    1.09072233841600    3.18460374146918
C         1.90226755354956    1.69933449429885    1.96969811175890
C         3.15260501963869    1.07473558863872    1.32636342039010
C         2.87812946277999   -0.28368477928182    0.63451256112538
C         4.49927871386443    0.95368604877482    2.08961278971728
N         4.36841829149296    0.38794084564003    3.33678438140857
N         5.50394329088210    1.47971033310593    1.47470821057631
C         6.82924543302850    1.21975200282145    2.05649044086296
C         7.30552643726289    2.46067468533263    2.82925420572872
N         7.95969824574916    3.53022962127436    2.07215234475733
H         2.01926927403447   -3.35508065652959    2.08528424097442
H         3.59917290029782   -2.74042757808773    1.83585086566583
H         2.53861241137774   -3.08513363945786    0.41461103838042
H         1.99539292570213   -0.93340119434294    2.52280196998222
H        -0.04889380553655   -2.02876875690595    1.57559979893212
H         0.66244754378852   -1.62363088962745   -0.07144032023651
H        -1.51699992385965   -0.11031587707923    2.50712353571724
H        -0.87754371722133    1.48503957542105    1.90858882277581
H        -0.81710240782520   -0.70271391609675    4.49922711228429
H         2.22254645159289    2.68369480305337    2.34063274859219
H         1.17665105431362    1.80089965593150    1.16099295832074
H         3.44277757779416    1.84093616590160    0.58521405818990
H         3.91635393153477   -0.58561596871766    0.43970816437470
H         2.42827167991241   -0.00950486303885   -0.33101694307698
H         3.42395161674599    0.13965900008126    3.62921465065748
H         5.12752218733142    0.25593577287519    3.99389580968863
H         7.41819937512063    1.04399929516531    1.14826123364989
H         6.80187303713849    0.32490984613470    2.69016668881226
H         7.96068455433172    2.34050598311372    3.69927366442805
H         6.38876684142313    2.83811759332174    3.29357220153448
H         7.42410794928917    4.35101946815951    1.77919853949497
H         8.37961336043335    3.14021540767679    1.23192770498250
