39
 energy: -54.517215070705 gnorm: 0.118677695651 xtb: 6.4.1 (79825abcba525fcdf90b791dcacef51065a7a4e7)
C         3.65395377944735   -1.50201432647110    0.63832280784378
C         2.52944230447380   -0.57316212493815    1.10762836656210
C         1.19590942218938   -1.08205991721934    0.53928160424371
O         0.13392125413475   -0.22809513553917    0.95346007420850
C        -0.35913919730864   -0.50671947331027    2.24833286747070
C         0.56930929297522   -0.37870569517238    3.44142988354848
N         0.77729849953735   -1.44688574952229    4.14129065815233
O         1.34684543744458    0.69003080716599    3.63385452029911
C         1.36728020471977    1.75982910052692    2.66969044745857
C         2.71283367679081    1.91868637477134    1.94058323459592
C         2.75849434454588    0.91607806635015    0.76075612219337
C         4.02875464020957    1.76381949964736    2.74996626019916
N         4.13488825372481    0.82809598583360    3.75285519590097
N         5.00823703524329    2.50184716443155    2.34985439978821
C         6.37053017954777    2.23638107878652    2.83581715356736
C         7.03860621005613    1.09764265466844    2.04787949901139
N         7.13094325900307    1.43120557556029    0.62474865816375
H         3.31140366111111   -2.53860078202804    0.71783311188458
H         4.53045205763268   -1.56917173966773    1.29194616668382
H         3.96886093970277   -1.27736522823730   -0.37868412379056
H         2.44492598717380   -0.55117108199855    2.20656917636682
H         0.96886135703980   -2.02988008136210    1.02211105398080
H         1.09624101350703   -1.11436327341384   -0.55307055189761
H        -0.84711741209648   -1.48587317499115    2.32455017339972
H        -1.12583920069031    0.26318615486159    2.33969973324379
H         0.20196322616412   -2.26428194781827    3.88725829587180
H         1.34364220861342    2.67296740480415    3.28186360914112
H         0.58645195226693    1.87092494413243    1.91549964523119
H         2.79823804757890    2.94583250912085    1.54278590131495
H         3.68837604826153    1.02133174520034    0.18520168293092
H         1.82758901543000    1.15917837585549    0.22773512119908
H         3.31224492494199    0.50036647558023    4.25785812247186
H         4.77340522121095    0.94128141862395    4.53063706532055
H         6.37634052847467    2.02851434905868    3.91256861375185
H         7.00782413395071    3.11658133141455    2.68701779306319
H         6.51734117956550    0.15021925398511    2.22473594029283
H         8.06799689308444    0.89891036253597    2.36309815522952
H         6.18239650342880    1.42531274500996    0.24186591072790
H         7.65154678422105    0.69085637951414    0.16077422660085
