39
 energy: -54.512489729346 gnorm: 0.120452870652 xtb: 6.4.1 (79825abcba525fcdf90b791dcacef51065a7a4e7)
C         3.80163890804011   -0.97461572546619    0.34599034526762
C         2.53386442333542   -0.40797464905130    0.99345149627452
C         1.30922957972769   -1.01650315069462    0.29326042942383
O         0.12395280728976   -0.50944029027356    0.89875590430283
C        -0.19892333781365   -0.92922256217257    2.20908775937959
C         0.51467558804519   -0.50856223861643    3.48019207675396
N         0.50649904082351   -1.18675841421712    4.58203435155581
O         1.30148428594062    0.56603147921080    3.58003142645249
C         1.30254733430132    1.81117738171180    2.85607775403298
C         2.62615448345380    2.00481752119012    2.09587071657288
C         2.65547717301084    1.12385141016005    0.82215990899470
C         3.92033777168512    1.84299320318617    2.93826914191637
N         3.79520203826495    1.96441926105415    4.30290308465023
N         4.98370955465973    1.60381252045462    2.24820166877987
C         6.35682082365674    1.47188964711490    2.75774697460420
C         7.19139053074699    0.63260307950776    1.77642746686768
N         7.28107255363481    1.24037074999678    0.44689095732627
H         3.92637066477177   -2.05046495275612    0.50462320394850
H         4.63964969665526   -0.37871673636475    0.72364781576406
H         3.86976125580742   -0.74024335945269   -0.71437081043962
H         2.64999247241390   -0.76392608045000    2.03032678930583
H         1.39678610413815   -2.08657303389644    0.46739392062125
H         1.47778952131817   -0.77351014058038   -0.76350467503086
H        -0.11080910794403   -2.01950408579434    2.13037370850414
H        -1.24931367197708   -0.63728276353687    2.18952236723880
H        -0.02316768095685   -2.07162781034274    4.59382392670972
H         0.99881786092806    2.67359712370047    3.46691070242621
H         0.51954218428540    1.67392016326855    2.10848011828480
H         2.45614945810809    3.05971191618317    1.81504709011991
H         3.61412935522312    1.30756748489315    0.31792222883028
H         1.89869669241064    1.46444267996208    0.10030482653313
H         2.88906942270891    1.68619319651952    4.67799050675534
H         4.59446781039322    1.85522294359200    4.91503859226513
H         6.37949706347540    0.92228788604974    3.70646175180647
H         6.90536125005624    2.39157130353530    2.99507871248755
H         6.74053834988549   -0.35002497982571    1.59815537769147
H         8.18558305547668    0.39057508665270    2.16566540655137
H         8.00684387367114    1.93861310221900    0.26775838817137
H         6.39449523589207    1.70676791132260    0.27118784842792
