39
 energy: -54.521076957247 gnorm: 0.110171942499 xtb: 6.4.1 (79825abcba525fcdf90b791dcacef51065a7a4e7)
C         2.61184144154803   -1.94654201697925   -0.35584322045186
C         2.10025988121223   -0.90254896574694    0.64210616051344
C         0.56421517498151   -0.87315633085017    0.64487137046465
O        -0.06254557383538    0.19240799515084    1.35223417386627
C        -0.39990224298273   -0.04322731027712    2.70430745960881
C         0.82408649177001   -0.12490275529871    3.59709261772090
N         1.05592942206365   -1.14107984121196    4.36371263018267
O         1.81393245414634    0.76167659063850    3.46304238371747
C         1.70467401978285    1.79865326473799    2.46944270681468
C         2.87297071003086    1.60834615515447    1.48648129190039
C         2.73574321590813    0.48994875497516    0.42362845948127
C         4.25317849901034    1.55612391104131    2.19572871545920
N         4.49653199022127    0.35326336474490    2.81744781935379
N         4.95347020133498    2.63724824576463    2.12557327441397
C         6.36945845844324    2.72099702923886    2.51343669062688
C         7.31489557530997    1.52848047377223    2.29446309623840
N         7.31101647415118    0.62460356499979    3.44688802845479
H         2.29983637750571   -2.94969812857094   -0.04842721250041
H         3.70229816836022   -1.89288609274988   -0.26635571885168
H         2.25067275969644   -1.77509602645852   -1.36782162233986
H         2.29938507354014   -1.29417267922261    1.65318356703334
H         0.25079843549294   -1.82809496308916    1.06068420155048
H         0.11062727226473   -0.82731046677759   -0.35331032278881
H        -1.08432471696664   -0.89802749548072    2.76394228817344
H        -0.97857636085481    0.85721105505806    2.91234229952827
H         0.19558901954642   -1.70249155310338    4.45487704057447
H         1.88986333900707    2.74467454276314    2.99848424295122
H         0.70292886084621    1.85171773044429    2.03987360974553
H         2.84478085354649    2.60653138505245    1.01383196775386
H         3.77161084305695    0.18698054770294    0.21817833418434
H         2.35862734661038    0.99833691610265   -0.47588193471163
H         3.68559420207428    0.05212678875892    3.35677453893926
H         5.40237386848943    0.23199695975824    3.25357217222701
H         6.45628705764473    3.11208857866277    3.53429134914813
H         6.64047891259606    3.55394180218134    1.85329410119357
H         8.32017205299651    1.96410122774263    2.31059670936466
H         7.08541362289336    1.03321355116719    1.34548933073958
H         7.30381236467320    1.25418977824628    4.25307917930337
H         8.15775415623571    0.06147825914178    3.46539268649300
