39
 energy: -54.527278220176 gnorm: 0.108116472232 xtb: 6.4.1 (79825abcba525fcdf90b791dcacef51065a7a4e7)
C         3.47122040928588   -1.40000399901696    0.18734903139643
C         2.48629922618113   -0.47240941515448    0.90640307081311
C         1.09011156374862   -0.99491785011571    0.53498703214169
O        -0.01943071118785   -0.24653807619069    1.02228793046131
C        -0.33435437962165   -0.62137201804836    2.34809269729569
C         0.74985579397227   -0.45076206912717    3.39559694999234
N         1.19318714737668   -1.29880105600677    4.26643587283950
O         1.16338816400732    0.79128144506395    3.66037288872007
C         1.28285586132639    1.82649113772698    2.66610598303077
C         2.64162712163087    1.95303376989887    1.95541990086437
C         2.72958725667317    1.04132238652983    0.70628192579137
C         3.92034958973780    1.69575200184059    2.79768324400937
N         3.76770636314226    1.58777850529618    4.16064722664770
N         5.05752915296480    1.61103460116825    2.19452017789117
C         6.33640634700929    1.59563604689968    2.92026851689627
C         7.41170972151153    0.96620300805015    2.01947262939771
N         7.37028270938047    1.40823290476852    0.62377025593481
H         3.19669167051607   -2.44789107086631    0.34464049105267
H         4.48498401107638   -1.26472871176879    0.57973506383831
H         3.59108265957555   -1.28647280049983   -0.88814180490337
H         2.52983112872907   -0.78928058918027    1.96138892003633
H         0.91214843374896   -2.02884037261838    0.82199138311982
H         0.94867666791519   -1.04014870412860   -0.55228518250614
H        -0.54821091718165   -1.69204142660834    2.45107905876549
H        -1.26408981379042   -0.10215836338586    2.58248697029159
H         0.81086415298432   -2.25009650354275    4.15442800373458
H         1.17008052152547    2.63551281462335    3.40224587314644
H         0.50516792833892    1.77716867994384    1.90216384788243
H         2.82864286186663    2.92530357723329    1.46523388224562
H         3.77681730728916    1.19069061092787    0.40960096661715
H         2.10724737149037    1.54280575749287   -0.04936439188885
H         2.96139999096675    1.12578774769687    4.57970712994306
H         4.58672064987602    1.40412286066230    4.72716792348874
H         6.30666765043845    1.05285432806820    3.87270731123951
H         6.57344588059858    2.63555431565586    3.17604101583889
H         7.38109374828249   -0.12892066729010    2.03879440475103
H         8.40045545929262    1.23409907467393    2.40562812598705
H         7.35858435000644    2.42709940021962    0.71404253509018
H         6.47191533260334    1.15796856687700    0.21791184097689
