39
 energy: -54.522962721802 gnorm: 0.111597325552 xtb: 6.4.1 (79825abcba525fcdf90b791dcacef51065a7a4e7)
C         3.62880542199359   -1.18503738195059   -0.00895270753691
C         2.57478781587611   -0.44668741853580    0.82256781945653
C         1.23782514166985   -1.10664394220886    0.45203693760851
O         0.18644014538995   -0.32390258872135    1.00928381095629
C        -0.27443084033492   -0.49590943919636    2.33421673587383
C         0.77793906713486   -0.46931796858931    3.42678027561849
N         1.22323312915505   -1.45386683641678    4.13843325578018
O         1.24204710455540    0.73937434939056    3.75458207426314
C         1.33987717253866    1.84118412802644    2.83211646215755
C         2.64656099083933    1.90749288578200    2.02246985718756
C         2.60411067558583    1.09468838002931    0.70457490640886
C         3.99677786271893    1.76050650123145    2.77482747683102
N         3.96370490629747    1.06856956714787    3.96342265576616
N         4.97138143945966    2.40845184000853    2.23217215951322
C         6.31952890273821    2.16195381212792    2.76528733947042
C         6.88807936785121    0.78221138990505    2.39520930869916
N         7.06931350814314    0.60544785740376    0.95264195011248
H         3.85701114398463   -2.16120659715274    0.43058086491732
H         4.63329849366633   -0.74987777331855    0.03120483820728
H         3.28360888049285   -1.07133690758282   -1.03454930823088
H         2.82667519120013   -0.66957521047465    1.87241128059382
H         1.21553682184491   -2.15656205734343    0.73525653214152
H         1.13225245829404   -0.99088814069326   -0.63408715053413
H        -0.91491438399243   -1.35682905619697    2.56065001467689
H        -0.94067060224624    0.33804116578182    2.55688789117998
H         0.81696777209733   -2.35360807137607    3.83994735485233
H         1.31947766478002    2.74635402934534    3.45612575384333
H         0.53554707012064    1.87938829367401    2.09561640223384
H         2.65332435959997    2.90649485187523    1.55075476172784
H         3.46771179426712    1.31603654688480    0.06253182133338
H         1.76649530880044    1.42494526566903    0.07281170372137
H         3.05686750722385    1.03580316409786    4.42791046885715
H         4.76194722308351    0.82943622348574    4.53882158956743
H         6.26221224549826    2.26358724433713    3.85570996134605
H         7.01882209732954    2.86983575505203    2.30384448877908
H         6.25449690794003   -0.03575182898069    2.75592522675595
H         7.87746487438365    0.75194280777091    2.86286584737452
H         7.67238100672407    1.34739159414402    0.58904333216467
H         6.09719338508896    0.69342491795475    0.66688026666266
