39
 energy: -54.529531586252 gnorm: 0.101114097245 xtb: 6.4.1 (79825abcba525fcdf90b791dcacef51065a7a4e7)
C         3.37929577845153   -1.59105617073730    0.21345339145451
C         2.42118248374190   -0.69560420260062    1.00574429552437
C         1.01008871543785   -1.27501223148654    0.82297211964045
O        -0.06782008230579   -0.40208157771544    1.14658178990855
C        -0.38866783069283   -0.38360196913956    2.52286334183374
C         0.75677032883247   -0.26344157821132    3.51049562510523
N         1.11326694721215   -1.12307181817974    4.40939454016990
O         1.41578743010075    0.89613043737721    3.58032840859420
C         1.43468930752649    1.94681083638956    2.59533513295768
C         2.63850638342781    1.76445203313396    1.65463495558811
C         2.56171936919350    0.75305459816750    0.48396023085456
C         3.97338141537999    1.61610571882201    2.43363087966436
N         4.07429463672645    0.58034410649599    3.33343278905044
N         4.92532264785077    2.45791268531213    2.21152950692910
C         6.22907332699442    2.30888418007636    2.87523073457764
C         7.15531185706632    1.15439765846625    2.45913029302007
N         7.62025348808103    1.36083063727932    1.08570157427924
H         3.28649210325106   -2.59343158007783    0.64334287950234
H         4.45652045756133   -1.40562748195794    0.28546755524826
H         3.16938279212314   -1.50454571578324   -0.85068443748155
H         2.73450901530805   -0.80469199807989    2.05704056927562
H         0.93805195855242   -2.17158791344465    1.43452826212268
H         0.87632364750650   -1.45176834569073   -0.25177190512441
H        -0.96073260532902   -1.29110149131690    2.75059191223596
H        -1.09347446297320    0.42808370084471    2.70547073694537
H         0.78040159031456   -2.04992038045014    4.10307434324204
H         1.57004404205440    2.83146721930989    3.23423925132869
H         0.52281034014534    2.03597712346444    2.00257469415484
H         2.83575331210882    2.67920073750883    1.06735795615663
H         3.52924405792024    0.78919088653162   -0.03528093137193
H         1.71578722357022    1.05198038885208   -0.15230704567545
H         3.25240130556046    0.27516923316514    3.85356381843174
H         4.88887316159458    0.63182628633840    3.93282491319524
H         6.08682383675497    2.32829677316057    3.96244013353542
H         6.78828363239556    3.22903227977551    2.66630819422673
H         6.69760357997181    0.16848684091342    2.59729513277768
H         8.05244804622934    1.04482969538582    3.07690373119073
H         7.86975276830197    2.34854521906227    0.99326302769549
H         6.91541853953322    1.23603053493402    0.36317139183094
