39
 energy: -54.529441493599 gnorm: 0.099238267114 xtb: 6.4.1 (79825abcba525fcdf90b791dcacef51065a7a4e7)
C         3.95299890855010   -1.20858362345799    0.47081116304942
C         2.71508526373481   -0.52253670609027    1.05770946629261
C         1.39026988926164   -1.12865953280458    0.57007814701478
O         0.29042467306435   -0.32453692410224    0.98522372776082
C        -0.27479530957464   -0.71095433718830    2.22160701424242
C         0.34736729012089   -0.22061441496258    3.51557960432412
N        -0.01665842581777   -0.75110718477415    4.63813736820607
O         1.35246512248396    0.65884427982178    3.52644925219083
C         1.37341321774559    1.74933899872154    2.58576824166132
C         2.65739930470132    1.98038394980117    1.77008137951387
C         2.64704758075841    0.95544415544037    0.60874956619732
C         3.97291185956196    1.92805966890169    2.59313756747870
N         3.94798028912765    2.71814568790403    3.71909118411515
N         4.94746801689126    1.18856379175091    2.18381346782106
C         6.21711102804378    1.19225004999479    2.92574856108663
C         7.40304139929919    1.20486111232525    1.94732807722157
N         7.44136475220701    0.07217319981195    1.01962060453509
H         4.10449063363962   -2.25520449293293    0.75331596676644
H         4.76547390615015   -0.54504998389234    0.78639053125963
H         3.92241451789598   -1.24820087590024   -0.61612577455976
H         2.62622224732631   -0.61677155832522    2.15247915643052
H         1.27179182827675   -2.17288721413196    0.85041662272272
H         1.32172614910480   -1.04367472844644   -0.52184212295836
H        -0.33207933165865   -1.80571096131611    2.19160272132594
H        -1.28278891763383   -0.30068109168121    2.28910682382570
H        -0.74864709614574   -1.47270984503802    4.55350966712447
H         1.16585482184462    2.66065942407602    3.16503577797614
H         0.53435605918116    1.62608195415316    1.89901530183830
H         2.61926182596413    3.02929612160081    1.42527043278884
H         3.54354691186543    1.14572341418613    0.00285849582833
H         1.75078493401628    1.12725755289061   -0.00524334345226
H         3.05377955664987    2.73517958463784    4.20826552167782
H         4.71357880261463    2.78422591701386    4.37859994945847
H         6.13333989120634    0.37363549367798    3.65065452071421
H         6.24933652939679    2.08986512288709    3.55526108329403
H         8.31543928557718    1.27776784935628    2.54967452064938
H         7.34696931794007    2.11355606398292    1.33935446707125
H         6.74976183848139    0.22638535949618    0.28186801025721
H         7.16146688218844   -0.76712759866813    1.52126648303347
