39
 energy: -54.525339889532 gnorm: 0.103549626899 xtb: 6.4.1 (79825abcba525fcdf90b791dcacef51065a7a4e7)
C         3.81308811786959   -1.20564914610967    0.34651033959720
C         2.62553291169394   -0.56836446004514    1.07529084728096
C         1.29733020502191   -1.05343262853375    0.47454850408775
O         0.13550374857062   -0.35407468197523    0.91006686142520
C        -0.29561796361829   -0.52321246875688    2.24534290287393
C         0.60391340048742   -0.34182061295119    3.45357501753849
N         0.65830661958961   -1.20991294133199    4.41145302825384
O         1.38356999314089    0.71380977915247    3.70170287161315
C         1.32557567249077    1.84849208441927    2.81647350465906
C         2.62616843993932    1.97117137680626    2.00360493139661
C         2.79720627067283    0.95164573702772    0.85008256625924
C         3.91410386252094    1.63153720464374    2.80147934690808
N         4.06128345799953    0.63090958467303    3.73406262457510
N         4.86455210053550    2.34029485453550    2.29307907498325
C         6.24871515202267    2.15102805143738    2.75214919305767
C         6.93942479524672    0.94336279619155    2.09765599364256
N         6.92557621042725    1.15531810350982    0.64852697679702
H         3.83938774818130   -2.27834459656599    0.56285901512875
H         4.74234976553102   -0.74113099190792    0.69389847815360
H         3.83583728292666   -1.01086401663365   -0.72375974866512
H         2.60278920578783   -0.86079631809161    2.13795910763918
H         1.09978166552138   -2.11357224062261    0.61638194965235
H         1.25634322863917   -0.79725819355136   -0.59170908865520
H        -0.75725241218979   -1.50764386763890    2.38838912537825
H        -1.12258086243567    0.18705514786650    2.22118246502912
H         0.11533746809540   -2.07521426689072    4.26961590657129
H         1.09490693960717    2.65109562219118    3.53184457412580
H         0.42724581155172    1.85899582662424    2.19701250576614
H         2.68551991940915    2.98137627583154    1.56028873678458
H         3.84170742496896    1.11009508793417    0.54853260379868
H         2.12932837316552    1.26807159134899    0.03546139337374
H         3.26971130095382    0.32934330238563    4.30120275181132
H         4.98878087032062    0.51977599671076    4.12503240475488
H         6.33817125623407    1.99557931765976    3.83403150590777
H         6.83255055234635    3.04642965046019    2.50632502904285
H         6.40955769448605    0.01083268135824    2.32178759334555
H         7.94115783832691    0.77145567997765    2.50444999099736
H         7.73466132388683    0.69752828908022    0.22169605470021
H         7.03283107006689    2.14782239764940    0.45397915043176
