39
 energy: -54.528710638990 gnorm: 0.120285044271 xtb: 6.4.1 (79825abcba525fcdf90b791dcacef51065a7a4e7)
C         3.66176763388286   -1.31610291743164   -0.01185222782340
C         2.63515549571477   -0.58725898047925    0.86129964922237
C         1.21913990483384   -1.01298785352022    0.44421487674132
O         0.14137481862603   -0.39939429464710    1.14460324993064
C        -0.12905982399855   -0.91369703221148    2.43293297316112
C         0.75690215561940   -0.35612852655643    3.53114667716668
N         0.89900334733624   -1.10223855470785    4.57861997995940
O         1.17510656409675    0.89524141361319    3.73842847848923
C         1.29993858270631    1.82653530024610    2.64682095981000
C         2.64047117390687    1.91678626148353    1.89703818058017
C         2.77472653135523    0.94402743932934    0.69911661936242
C         3.88648399441814    1.80521339910819    2.81667731890147
N         3.77610279550333    1.93430594268096    4.18188065768205
N         5.00224466144550    1.81511326462410    2.16926692517460
C         6.30629814055330    1.86837908617801    2.84682277231229
C         7.04532797301125    0.75067434229873    2.09285490244244
N         7.07895418896775    0.84893266492150    0.63192837302944
H         3.58240001722622   -2.39426326853649    0.15974319201076
H         4.65230937412564   -0.94560118248442    0.27369701549013
H         3.44011085917316   -1.20384742394107   -1.07119344463483
H         2.78501022096828   -0.83748267897788    1.92442201665011
H         1.06742289718960   -2.08940972063177    0.48076716771203
H         1.04094593834707   -0.69310099999941   -0.59025592626632
H        -0.17333817804401   -2.00934806337456    2.41674566881554
H        -1.12936112744642   -0.55289130578560    2.67407194567894
H         0.87085913439159   -2.12329172302385    4.43600864619527
H         1.21220922258068    2.74886564833601    3.23905957422721
H         0.54033617232546    1.76820463972176    1.86551402870823
H         2.69802524031269    2.96483461180529    1.55229481946623
H         3.80537552034566    1.11313276112731    0.35825405962418
H         2.07267168448152    1.36715693977310   -0.03428250764845
H         2.98342793564350    1.50119258994557    4.65438041883642
H         4.63596244638962    1.86677306083422    4.71248426688578
H         6.35028905613046    1.76520397205354    3.93771953040062
H         6.77379000193302    2.83953026525008    2.64346578038775
H         6.47913589013446   -0.16622095904734    2.29118812717104
H         8.07247305041808    0.72156302065989    2.47051616212061
H         7.76237839027449    1.52150562643643    0.27562535094130
H         6.15688858789462    1.09477690003962    0.28011467914874
