39
 energy: -54.525154736140 gnorm: 0.092434598955 xtb: 6.4.1 (79825abcba525fcdf90b791dcacef51065a7a4e7)
C         3.83159722223401   -1.30856064081976    0.67226227503783
C         2.59067104603697   -0.61311084857259    1.24146523428532
C         1.28694176461170   -1.12898991395756    0.61340176558013
O         0.20038421976181   -0.23515749841556    0.83493019124974
C        -0.53968726917436   -0.43290030983791    2.02262866363691
C         0.24926478049253   -0.37813235799607    3.31740268311464
N         0.12093955128059   -1.21451038928775    4.29621710695548
O         1.11297457729588    0.60278124622311    3.59235959369490
C         1.42827882746606    1.84549072010760    2.93604052109575
C         2.77503160255260    1.84258272164108    2.19200044780807
C         2.65111028831340    0.90673988065215    0.96393609659748
C         4.10006420988356    1.48857890502917    2.91980709991390
N         3.97480457064366    0.85030944864233    4.13205756669882
N         5.20301046504739    1.72846401902937    2.29520739977981
C         6.60701685396531    1.53499481422977    2.68739404556621
C         7.41692648219730    1.09979677862526    1.45510122618234
N         7.23625995285538    2.03802411556316    0.34506482435842
H         4.00000670976905   -2.30438611483758    1.09433315242320
H         4.68650483177082   -0.70302678267041    0.99233192099929
H         3.68311352664974   -1.24963004060928   -0.40403536939601
H         2.63752594266055   -0.85272818997993    2.31649345406332
H         0.97597906523281   -2.08559235463708    1.02722798271610
H         1.44610838276194   -1.25694120183185   -0.46479348285190
H        -1.14361092191751   -1.34829117614993    2.02572282179524
H        -1.25650336426882    0.38873971411229    2.02634833540819
H        -0.51275595575509   -1.99497864665511    4.06604549717809
H         1.34562270311495    2.67038199418761    3.65843836194392
H         0.66825541456349    1.96331642882422    2.16188269238539
H         2.71708512483824    2.86567811271694    1.77910356317140
H         3.40659415936761    1.24000319340281    0.23922861709350
H         1.67780507049690    1.11112335609634    0.49415078842199
H         3.03987181211012    0.69016837485971    4.50546379487005
H         4.76457589588061    0.29665143392275    4.44057589548952
H         6.78708435716060    0.92015262610400    3.57743944691253
H         6.99883569073832    2.51689420666970    2.97960783729473
H         7.04044116159248    0.10638150048094    1.18678905112866
H         8.48070751396755    1.13653436318363    1.71107538664375
H         7.85425867804880    2.85238186614514    0.38075657025389
H         6.26819633608500    2.34291049241437    0.41074866702360
