39
 energy: -54.535008587593 gnorm: 0.106396245788 xtb: 6.4.1 (79825abcba525fcdf90b791dcacef51065a7a4e7)
C         3.54241249411298   -1.71022277711111    0.72954322985245
C         2.47206031694026   -0.69698665106701    1.14815874539726
C         1.10032090448594   -1.26829862394988    0.75798113647652
O         0.09358881290389   -0.27905888283519    0.94906685659291
C        -0.51814759764976   -0.30509818964379    2.22285498712666
C         0.45277831130064   -0.01523270528133    3.35208724168655
N         0.58144344825858   -0.74991538865986    4.40932887574960
O         1.20316757374157    1.08824220784527    3.40728207055186
C         1.40801227555591    2.03063999726850    2.33750481885187
C         2.77759242220809    1.79452489446089    1.67731776523839
C         2.69507301536099    0.71813799999966    0.56651530765126
C         3.96902011810124    1.61048827726287    2.65576711590162
N         3.70288781004789    1.27568606746068    3.96332594549952
N         5.11220117077696    1.68640424116652    2.06286416821668
C         6.32551230863588    1.38343770008218    2.83653205052850
C         7.64631730964472    1.71805871869759    2.12421228889061
N         7.85914954641425    0.94817486253213    0.89658326245424
H         3.16342670589457   -2.72484532973640    0.88792504816109
H         4.48888340155148   -1.56505583000489    1.26161674495018
H         3.68733323839594   -1.52261606216879   -0.33240711644548
H         2.48302341321060   -0.72357630731410    2.25018883328504
H         0.94351369137789   -2.18433056705883    1.32307859685321
H         1.03879171791933   -1.39010154372165   -0.33086630112083
H        -0.96848734919360   -1.29237657723044    2.38144023221068
H        -1.31087652892375    0.44270373755310    2.25897408956643
H        -0.05705262783129   -1.55972933204618    4.39505298851166
H         1.34741813551918    3.01254438848167    2.82875667859079
H         0.64475437027962    2.03787050174670    1.55761771736987
H         3.00813667208366    2.70924754646199    1.10225462240153
H         3.64521719341167    0.79339908498147    0.02008778574279
H         1.83476176945478    0.93165853327618   -0.08468927201461
H         2.78374074191479    1.20781755830401    4.39891651766616
H         4.58503335113196    1.30982544780687    4.45942396729832
H         6.26708518843405    0.30687788716769    3.03713435311369
H         6.38132191275353    1.81152210255019    3.84483078647284
H         8.37479548282269    1.43249225285542    2.89127022563494
H         7.59723184585379    2.79620876531921    1.94067592603285
H         7.19842811080786    1.34961176159015    0.22675457424102
H         7.55228941744790   -0.00234930811372    1.08830675498876
