39
 energy: -54.513868811027 gnorm: 0.104522271204 xtb: 6.4.1 (79825abcba525fcdf90b791dcacef51065a7a4e7)
C         3.02341710087821   -0.11726632491437   -1.30031506411697
C         3.00317185459469    0.22010596580381    0.19411132181432
C         2.38583478398171   -0.91776721098278    1.02142292274041
O         1.02219231236254   -0.76445268622790    1.40298859357495
C         0.73210632989903   -1.06935385116535    2.75218133846490
C         1.50668162798884   -0.35953290863322    3.84674605466649
N         1.92444831528236   -0.81248947348589    4.98445188788569
O         1.70251851048602    0.94110475910602    3.61484745397747
C         1.22855360490991    1.78594134643658    2.54896438018717
C         2.37424679096591    2.31544390262623    1.66898637652531
C         2.27171259672758    1.57727423406566    0.31108631626518
C         3.67279511679001    2.14554685785786    2.50303664147060
N         3.61139569800846    2.91320418739819    3.64301970701586
N         4.46553853771494    1.16244005480450    2.23994167838395
C         5.49993765116303    0.79927058084017    3.22004425385617
C         6.04408107738331   -0.53856999355773    2.69279946585506
N         6.74978832490832   -0.30073764098561    1.43164729459902
H         3.22603494110889   -1.18225800329957   -1.45168441981200
H         3.81709038569890    0.40998218862178   -1.84075429617263
H         2.13027980470261    0.17358375800888   -1.84954072667621
H         4.00043574039971    0.42308672789117    0.61785777157227
H         2.98169524856579   -1.19656006706574    1.88760015473823
H         2.38092665805965   -1.85670381756728    0.45345771123442
H         0.73071039851193   -2.14003811856690    2.98947235120003
H        -0.30565055287340   -0.75159281032509    2.85715772241016
H         1.85875346338798   -1.83669340839197    5.08628579096151
H         0.77634013374802    2.68318852760164    2.99571572448476
H         0.44848566726190    1.27506806655404    1.98209462854602
H         2.17084269470085    3.36649674775638    1.39607526497754
H         2.71956538609658    2.19509381939897   -0.47932374518701
H         1.20174224650409    1.40804562804314    0.12051090214954
H         2.82820929209143    3.55582689103847    3.75629700594898
H         3.96226919905086    2.53382822842661    4.51389350006606
H         5.00046010533971    0.73747253003404    4.19438466079210
H         6.35135616959123    1.49048806843664    3.20154534741722
H         5.18016267833414   -1.18923433468067    2.51705120532073
H         6.75082509661707   -0.94979776554750    3.42074665951800
H         6.35972518905715    0.57123171247412    1.06573054383223
H         6.55912359828212   -1.06708195437755    0.79072562110724
