39
 energy: -54.517444048306 gnorm: 0.106690775854 xtb: 6.4.1 (79825abcba525fcdf90b791dcacef51065a7a4e7)
C         3.61375912001784   -1.68019263294324    0.35527512735294
C         2.60610343406378   -0.82592051981482    1.13141259231623
C         1.21544697177267   -1.22398461342991    0.61379831033188
O         0.24459546129278   -0.25584455241444    0.99950635242887
C        -0.29854347497246   -0.44031244970880    2.29117479959463
C         0.51081084996409    0.05348813735746    3.47565408522266
N         0.58540546728741   -0.59705605105890    4.59158470265112
O         0.91194983597553    1.32705168326478    3.44547438844933
C         1.35435137741991    2.04546564912104    2.27814386078092
C         2.77422108872807    1.77615282078823    1.75014036581708
C         2.82210939973701    0.64194777619583    0.69629694366827
C         3.98409431480149    1.55328581682255    2.69738357360542
N         3.62999048889381    1.39257854691314    4.01700954946466
N         5.13778605350322    1.69038191242554    2.13670529833075
C         6.35627018872766    1.66210378464495    2.95948802586365
C         7.56176061505051    1.67608283299438    2.00528995740194
N         7.40866330302608    0.52137152480299    1.11743030914901
H         3.31910290284221   -2.73181126972383    0.42909864115236
H         4.66787791379388   -1.48893803590775    0.58383167602661
H         3.46889395125438   -1.53355643663253   -0.71311092149813
H         2.62201177609124   -1.05092501035209    2.21049433974956
H         0.84060016490484   -2.20608770250149    0.89308590070367
H         1.19171957230689   -1.01303809052348   -0.46283956487051
H        -0.33653325696110   -1.52864105062315    2.42067934609567
H        -1.30388926866438   -0.02197997709450    2.23452454587766
H         0.16896347720965   -1.53859771376625    4.53030640896252
H         1.30971347929228    3.10147111744515    2.58145261232253
H         0.65474582060085    1.89998106072674    1.45338625287374
H         2.96748689395526    2.71448687145287    1.19991918704379
H         3.78724190649867    0.85454781888696    0.21635766664507
H         2.12149370254120    0.85738130610304   -0.12377616979336
H         2.63801637471437    1.56876874744571    4.17231895055167
H         4.26269903222214    1.16982457847842    4.77563993469944
H         6.26164832634192    0.68093534239546    3.44010351004027
H         6.43543094769273    2.44026552217924    3.72840622799446
H         8.48803422986833    1.65059477598593    2.59007546068161
H         7.67323809430869    2.51292806778691    1.30832128568258
H         6.65778615365069    0.62982164571710    0.43128386017489
H         7.19258165101386   -0.23862073362918    1.75785026770877
