39
 energy: -54.526862859701 gnorm: 0.099141823475 xtb: 6.4.1 (79825abcba525fcdf90b791dcacef51065a7a4e7)
C         2.50629607436645   -2.72720665908022    1.08215139789360
C         2.01465075942592   -1.29486620593885    1.31501593162460
C         0.51907827800642   -1.43967080974419    0.99470431937180
O        -0.17426210455439   -0.19555750162019    0.98577600877571
C        -0.50163131519703    0.20831460168084    2.29998771884759
C         0.61488111199871    0.46850607173778    3.29376085305943
N         0.61204945294148    0.13121429111941    4.54288034225055
O         1.61899860804467    1.31505786318278    3.05109740103090
C         1.95643849228185    1.83525077334284    1.75108509222136
C         3.17330798017716    1.12615242977578    1.13160522498071
C         2.75969209530828   -0.22109778692647    0.48884626735581
C         4.39957036902052    0.99167286195604    2.07443523145059
N         4.20228168780806    0.87342647416171    3.43079950026520
N         5.55939084634097    1.19519144127370    1.54759868427907
C         6.76821653601651    1.07150844282456    2.37580011965359
C         7.34442648282983    2.32899724920287    3.04706796581688
N         7.44890838090314    3.49111875499547    2.16182851832117
H         1.77097381423967   -3.43582764888481    1.47627246942612
H         3.47440712815046   -2.98394678796500    1.52580479793650
H         2.57987848319848   -2.88090423871848    0.00748888233253
H         2.11787939469903   -1.08428902478812    2.39218751175047
H         0.03582697726126   -2.05002930338052    1.75428897784561
H         0.42226175576081   -1.99983789931748    0.05606172151315
H        -1.14580810076634   -0.61920148432746    2.62081040219347
H        -1.07694886032825    1.12294201476697    2.15370750912246
H        -0.17151285564920   -0.44057380346458    4.89326320438700
H         2.13801393113574    2.91521030524121    1.85035272278636
H         1.16885312503751    1.70295192645592    1.00741505040499
H         3.57863733514064    1.77875577709867    0.33763872899750
H         3.68740183646232   -0.62515379271725    0.06092733050176
H         2.22980673027841    0.04032567987468   -0.43887844417686
H         3.30279385236604    0.80237143766133    3.90519326615544
H         4.88781691319447    1.05625521087088    4.15334680078592
H         7.57125982385594    0.69683415847253    1.72975313426280
H         6.69416854461431    0.38477502661367    3.22782795123197
H         8.35024703726750    2.09421758991970    3.41286853434378
H         6.68908510240198    2.51703340293968    3.90361486070253
H         6.58964625724979    3.56232986093278    1.61139918406667
H         8.16583695572301    3.26347185798750    1.47727936424568
