39
 energy: -54.516245586816 gnorm: 0.131644607548 xtb: 6.4.1 (79825abcba525fcdf90b791dcacef51065a7a4e7)
C         3.30135631864558   -1.32096213613180   -0.16816186316582
C         2.40875867982158   -0.62394897264604    0.86381792722367
C         1.00970411541314   -1.20244332671075    0.60248373202470
O        -0.01861610747023   -0.30785492704196    1.01586930591685
C        -0.38979005732656   -0.43424415837954    2.37369526449996
C         0.63154853649693   -0.39537171015586    3.49496285668269
N         0.84696935704207   -1.31080746945335    4.38358228073961
O         1.34303432605989    0.68467634108524    3.82823689106592
C         1.58880911796794    1.73920756902596    2.87847010234192
C         2.73063323708089    1.75374601906460    1.84727011917165
C         2.42062538697820    0.89838251901429    0.59365585686881
C         4.13350472444852    1.58355950375951    2.49048139898787
N         4.14928515275580    0.75546613396028    3.58895370609003
N         5.04100772984471    2.37127648049239    2.02133285867118
C         6.32288084276042    2.50651653001543    2.72913657935400
C         7.18325598193648    1.23796485350948    2.60902082848001
N         7.75115427795931    0.96370785733221    1.28714096711195
H         3.07664241285287   -2.38209587868170   -0.02094503146971
H         4.36658252955952   -1.22282837123009    0.06773161010761
H         3.11420537528174   -1.13312376274535   -1.22344765704030
H         2.76127478317137   -0.79769968119820    1.89378909353122
H         0.97293850894444   -2.25992958171820    0.85429570573759
H         0.75828976584524   -1.19441856131378   -0.46566277674886
H        -0.87233630366822   -1.38956192942038    2.61284138437238
H        -1.14773526950392    0.31655578427584    2.59897280971065
H         0.26006053114906   -2.12371304062841    4.14191675178568
H         1.65634518484732    2.50964004366073    3.66014072858815
H         0.70072585068760    1.93823000833876    2.27635965103105
H         2.69843319261129    2.83890091064571    1.64240959948596
H         3.11090912735451    1.21254109911717   -0.20122399207867
H         1.45425309852112    1.20770853366257    0.16911389133521
H         3.26056154438012    0.35054270361159    3.88115911325255
H         5.03713173011209    0.68503779688202    4.07085390781450
H         6.15406633437477    2.63538074774558    3.80502306171233
H         6.79731421055495    3.39151752065273    2.28786166923845
H         6.66386942803352    0.30466748620365    2.85356155155033
H         8.00759959240992    1.31313930448255    3.32547663209058
H         8.50379994049385    1.61353663416659    1.04709526687598
H         6.96814800955949    0.97509558926612    0.63815041321370
