39
 energy: -54.522820387858 gnorm: 0.103040275330 xtb: 6.4.1 (79825abcba525fcdf90b791dcacef51065a7a4e7)
C         3.23622928978060   -2.03273447214779    1.02269393260156
C         2.32010407148809   -0.82837229400686    1.26304060986249
C         0.95387402203108   -1.12318623570045    0.62522781386412
O        -0.00801734237175   -0.14309918163847    1.00313375144770
C        -0.48858183214914   -0.27409633039867    2.32575735857258
C         0.46906323021022    0.25215286019893    3.37830775758495
N         0.64732585603829   -0.31306720889056    4.52844772848859
O         1.10997714195098    1.41687122688645    3.25005842639259
C         1.53081493971802    2.09838719076228    2.05300794369758
C         2.91465770954725    1.66329858312385    1.54014910624752
C         2.93022258349923    0.42985294889843    0.60330868992657
C         4.03395516589730    1.23135453131113    2.52570993773184
N         3.64928018126565    0.63693119812763    3.70525014713818
N         5.25692159279334    1.28436988482923    2.11864413308718
C         6.49822164204491    1.02010936099959    2.86148677661482
C         7.55637967856024    2.01526112147525    2.35763057823688
N         7.66525983096851    2.07477081471816    0.89828296702691
H         2.72432460989859   -2.99575952798825    1.11602289906386
H         4.04780983115345   -1.97784665571257    1.75638814987222
H         3.71834962934288   -2.11925958173962    0.05109204691652
H         2.22886167261547   -0.70150908163953    2.35431421244032
H         0.72218191632618   -2.15235189308132    0.89013343026284
H         1.01631611035979   -1.14883011418939   -0.47005932466465
H        -0.77733342830079   -1.29637672573017    2.59822588673723
H        -1.38779514966594    0.34257662524407    2.33359001265686
H         0.03048270577988   -1.08846397202147    4.81470643916602
H         1.72071348570083    3.16372192537120    2.24829424283681
H         0.72775480933041    1.98368050990242    1.32309314359567
H         3.31241892703041    2.47717418225252    0.90772652189304
H         4.01114528607688    0.31975228187499    0.44050449532946
H         2.40553064007294    0.69162036319276   -0.32726643697301
H         2.72979330873552    0.54973123167795    4.13666257020444
H         4.30563123545749    0.31075971074002    4.40401687923016
H         6.83318377738751   -0.01544862628027    2.72711393628507
H         6.39539648661585    1.22233728984756    3.93459821719321
H         8.55624583425015    1.73944074791312    2.71089722680125
H         7.29889075871282    3.03662883534092    2.65597593564833
H         6.71187166383083    2.32781784661655    0.62737140615274
H         8.01315445125869    1.24338076402147    0.42692625340692
