39
 energy: -54.530996672864 gnorm: 0.094845381487 xtb: 6.4.1 (79825abcba525fcdf90b791dcacef51065a7a4e7)
C         3.68955924636257   -1.29291484258407    0.56284280688997
C         2.48898438945638   -0.47239190643156    1.04544234525256
C         1.18113626029461   -1.17860956825804    0.65673314325905
O         0.02227388514328   -0.48851396686219    1.11436244127597
C        -0.35190479558137   -0.62723247578642    2.47015857663035
C         0.52180303926287   -0.12656284586879    3.60499298602199
N         0.75458510702690   -0.84656660512827    4.65450731559440
O         1.11406656648909    1.07031911789621    3.58297319543886
C         1.34368257986421    2.04688163388658    2.54948373826116
C         2.70348389680253    1.94128406610284    1.83734846428052
C         2.60730356214051    1.00550328718608    0.60675347233736
C         3.96681037259537    1.48565017937282    2.61653817593734
N         3.76180020221360    1.32876004037201    3.96782844535771
N         5.09621128596005    1.27769880932024    2.02885637394926
C         6.37286229215022    0.93789479558735    2.67474342661439
C         7.44936249245664    0.89339918078144    1.57790068912056
N         7.54771580032387    2.11629727791385    0.77793905615702
H         3.80119823404650   -2.23650615136369    1.10630037854580
H         4.64237299097683   -0.76350046090728    0.67169697289230
H         3.58008025720303   -1.62937828694080   -0.46610983614685
H         2.54096554402940   -0.59102647790462    2.14021233089999
H         1.19537512268767   -2.18185562924945    1.07665308901527
H         1.14648633794394   -1.23439691635755   -0.43866527242249
H        -0.50046422987869   -1.69991891550779    2.64321256703995
H        -1.36087135218407   -0.21851655034466    2.53236185834728
H         0.24124950863472   -1.73803192990639    4.72837069325344
H         1.28717005723999    3.01654771718472    3.06493529894795
H         0.58517472133294    1.88534304863297    1.78175335982442
H         2.84449007818190    2.99224273962024    1.52723729808975
H         3.51621205397483    1.19941213432405    0.02083030510184
H         1.78111275608628    1.31026107420107   -0.05228015278228
H         2.79481513847901    1.24983018215425    4.28069679958415
H         4.40173319473150    0.73937106860250    4.48606189617661
H         6.27270765203663   -0.05022389138714    3.13974509879289
H         6.73141720694592    1.56963347092909    3.49655966481137
H         7.03447523477361    0.14444801349019    0.89412642156816
H         8.39561519783103    0.51942068237478    1.98194079161807
H         7.74776977873982    2.89902982175025    1.40538072019885
H         6.67860910636325    2.33883086675015    0.29882571693539
