39
 energy: -54.526813433572 gnorm: 0.108488349074 xtb: 6.4.1 (79825abcba525fcdf90b791dcacef51065a7a4e7)
C         2.38686970271144   -2.76075563944529    0.88747434570181
C         1.94057954434634   -1.35591808111528    1.30556130837141
C         0.54921078897468   -1.12961813492974    0.69467157783945
O        -0.06935125483658    0.13512889424637    0.91011174869050
C        -0.65434639413782    0.27919889345505    2.18857184185788
C         0.31837946397379    0.31491867409109    3.35236440622253
N        -0.15737556576719    0.01698467338453    4.51811126399795
O         1.52892786339384    0.87848975678585    3.32502163076556
C         2.00307598400359    1.57314190183873    2.15577388548763
C         3.25847520785118    1.01355062309701    1.46427008959913
C         3.01286693451521   -0.36368895964857    0.79929789274591
C         4.50307608283280    0.98537812721732    2.39212115562168
N         4.44431241822208    0.05277847406500    3.40179129804723
N         5.58227896132872    1.58751205149475    2.02209956158249
C         6.85353846477383    1.59758814700024    2.76120198571881
C         7.56185908459546    2.95898756424978    2.66755341514883
N         7.67013664997614    3.41586444687112    1.28024262580647
H         1.66902321760526   -3.54620299941261    1.14426768588742
H         3.30948609720788   -3.07132152976510    1.38977969383558
H         2.53743117781124   -2.81199421450273   -0.18892831512712
H         1.75818731023677   -1.29526427434230    2.39108039975287
H        -0.09919359456819   -1.90104149741067    1.10395865598853
H         0.59993783236294   -1.14904437875364   -0.40134845827394
H        -1.29214526542212   -0.60713843683720    2.29002395197597
H        -1.30815854538730    1.15108333204151    2.15281332321468
H        -1.15437452438342   -0.24697098571042    4.51772009597013
H         2.41959700662051    2.54230013404390    2.46622333152790
H         1.21064140636132    1.67320327517371    1.41221892435028
H         3.59999922134424    1.67560581397429    0.64842078841115
H         3.97666403793090   -0.85042338993782    1.00229045392036
H         2.90375955600448   -0.35693187248034   -0.29516260581383
H         3.50777428807208   -0.11419424910614    3.76811503817524
H         5.17254882424522    0.13191268988799    4.10098298868338
H         7.44401618208235    0.77600915024567    2.33814163015619
H         6.68283455538795    1.44180936615947    3.83341020363888
H         8.53924028982825    2.85946969293359    3.15276337645870
H         6.95177056636756    3.76309566602791    3.09146928490230
H         6.79259829752403    3.33310558288072    0.76115469357002
H         8.23502289997155    2.70980913703086    0.81461760508217
