39
 energy: -54.532321075526 gnorm: 0.120400725675 xtb: 6.4.1 (79825abcba525fcdf90b791dcacef51065a7a4e7)
C         3.40019226749572   -0.62012946333989   -0.55191650607662
C         2.55684121053549   -0.13339491146072    0.63104108364037
C         1.26672492214384   -0.96760192254582    0.62914942714873
O         0.13230686617345   -0.48057774144576    1.33944629389864
C         0.16626322644033   -0.74279514593905    2.72779952110124
C         1.43362610412982   -0.39537298237040    3.48606979036844
N         2.16474998391069   -1.26242485890211    4.10876728334048
O         1.92149480057605    0.83737028386106    3.64767300536759
C         1.47407727747626    1.88614060563658    2.76767487031160
C         2.52827561399807    2.23333066963583    1.70208955955931
C         2.27937544098808    1.37521390231360    0.43678933336236
C         4.00465503023077    2.18498136954559    2.18031419372847
N         4.37502091319793    2.55727317220697    3.45187111060144
N         4.73013334655366    1.54799626635792    1.32469085127922
C         6.11625275725497    1.19033149086468    1.66117792466506
C         6.14477384548893   -0.10077789156403    2.49551577360867
N         6.13579969862270    0.20118833628712    3.92863391497742
H         3.67363652152299   -1.67423265880797   -0.44115258229969
H         4.31391788733578   -0.01596059172469   -0.56018188985536
H         2.84269791787155   -0.45708834737590   -1.47200046126673
H         3.15273919571833   -0.26411668183842    1.54925398230066
H         1.59933310511094   -1.94715664368547    0.96512934990450
H         1.04740446325227   -1.14937628727960   -0.43059919910661
H        -0.10438333932468   -1.80419503960695    2.78122697399241
H        -0.62482919393880   -0.10865459487882    3.12901021437692
H         1.70379126497053   -2.18500473502979    4.11533222492912
H         1.38128186713035    2.75539382413592    3.43470122039193
H         0.54252076063552    1.70649380395158    2.22844550868607
H         2.41967714630678    3.26910586051308    1.33338650310578
H         2.82560388431856    1.80752078794858   -0.41277907472286
H         1.21383595283873    1.49157136040634    0.19004975948659
H         3.65363122534790    2.60424695963137    4.17059708042359
H         5.22800996740660    2.14262250684331    3.80674292187290
H         6.74208933105034    2.00811738773585    2.03825995178527
H         6.53296264731731    0.93487120869887    0.67927658726332
H         7.05281165906642   -0.67228699728715    2.27313950071210
H         5.31762021857180   -0.75669998707870    2.20554062396887
H         6.87777259670580   -0.25282354242392    4.46689435703390
H         5.24427224040201    0.00807379867942    4.37841475296312
