39
 energy: -54.524145020035 gnorm: 0.109477769589 xtb: 6.4.1 (79825abcba525fcdf90b791dcacef51065a7a4e7)
C         3.09680630397438   -2.18560002365662    0.58689510300300
C         2.33323029150473   -0.97585562457158    1.13553919746146
C         0.90726496371278   -1.03549792477559    0.56688232574058
O        -0.01496912158587   -0.00062309532652    0.89420006288162
C        -0.59857316636321   -0.16983171987670    2.17021356117476
C         0.39094726656339   -0.05928961675424    3.31499056114714
N         0.35496871683890   -0.75850390097505    4.40305222209546
O         1.38342002388903    0.83273850214931    3.37040786400641
C         1.68100327473077    1.87613049139537    2.42316148280571
C         2.98209652791789    1.48205424280793    1.70260102651844
C         2.86448130845157    0.38127152881663    0.61920617877672
C         4.19344546959181    1.40149047674990    2.67052449486810
N         4.03683500213949    0.75859581564100    3.87667070122952
N         5.20588407646422    2.08852540562166    2.26173215554648
C         6.41807349529490    1.85736540987342    3.06150496235761
C         7.65983910297446    2.19795557250104    2.22131863950802
N         7.74516367973104    1.47677790762416    0.94942468210666
H         2.61266698224621   -3.08332285228548    0.98423223048374
H         4.16317030430604   -2.20541579052242    0.83681108984341
H         3.01367464207528   -2.15923933656178   -0.49769287366406
H         2.38940055335154   -0.90811371640125    2.23442656756105
H         0.46492551427588   -2.00905957327348    0.76575839496601
H         0.93189159893898   -0.84712712352488   -0.51391391204244
H        -1.03328814626979   -1.17128435164413    2.27408513846382
H        -1.34803778191498    0.61235089438499    2.29440946588243
H        -0.41759475544920   -1.43968008687866    4.45619682697797
H         1.82963344402883    2.78525871913661    3.02360401048513
H         0.81277636766251    2.05110024851268    1.78566133822307
H         3.18437637313682    2.38353672666419    1.09681392315131
H         3.86981779562194    0.30832458189864    0.18217239582785
H         2.19380503070638    0.93485797000169   -0.05423963251180
H         3.14701236754468    0.27124110502616    3.97605732856946
H         4.53224770393929    0.98120936399271    4.73134546642981
H         6.36220932808027    0.79399754681650    3.32373394006851
H         6.33654279312642    2.50933179437258    3.93975885703992
H         8.63608386289856    2.06706311250013    2.70133933538857
H         7.61795702909289    3.26400185039180    1.97577081848814
H         6.91746372257489    1.51468298839190    0.34954898066952
H         7.70688475506111    0.48210252398152    1.15816576893021
