39
 energy: -54.528598907138 gnorm: 0.108759391581 xtb: 6.4.1 (79825abcba525fcdf90b791dcacef51065a7a4e7)
C         3.28525446286254   -2.13331796508904    0.48551502640824
C         2.46261670614195   -1.00478051952595    1.11576142860157
C         0.96975986317820   -1.20100981243049    0.81051160956201
O         0.13815900003435   -0.06114914517675    1.00487255506539
C        -0.55587339268762   -0.00825002198980    2.23489548090209
C         0.36996550385968    0.19498986223713    3.41954753649470
N         0.40357273617673   -0.56271288751039    4.46779861725879
O         1.20628344717209    1.23551108753018    3.46047766624748
C         1.61020776565361    1.96865373950626    2.28836619325215
C         2.92096518150028    1.54711683239839    1.60165759364321
C         2.87559872633359    0.38499829556096    0.57856294349396
C         4.06824776681982    1.33004587006857    2.62506143870183
N         3.90978076067467    0.63386635976156    3.80100842672664
N         5.17295215342978    1.89531350398268    2.27255499803031
C         6.42813440006204    1.78036181459029    3.03003653412711
C         7.55074318408684    2.20394797197842    2.06867249425986
N         7.65549113888463    1.19458079068267    1.01259602670881
H         2.87168526213020   -3.13165599240988    0.66003049479186
H         4.31432752230322   -2.10354197059222    0.85982088305036
H         3.22415827298839   -2.03616925858670   -0.59650448437503
H         2.69355260519920   -1.07086736079343    2.19167901284555
H         0.61089984775703   -2.10601849025375    1.29550330017922
H         0.83043558615710   -1.31384776191113   -0.27210876467714
H        -1.17242802230433   -0.88650428818140    2.46117764303568
H        -1.13317148046312    0.91182855487459    2.33036173839062
H        -0.25062407613441   -1.34974469286373    4.59541963720436
H         1.72826682709884    2.98547226333678    2.68996105321724
H         0.87860712008879    1.83822441349262    1.48924949439945
H         3.05369696896830    2.46276511028126    0.99788918281687
H         3.87744980946427    0.16595423587886    0.18443690931660
H         2.22723238314848    0.55740969670340   -0.29303859592749
H         2.99541482402577    0.56019012146804    4.24562440808157
H         4.60775683328510    0.72768246408385    4.52866729828950
H         6.63220665995103    0.73718767689715    3.29981102312268
H         6.34148106605527    2.40307941333961    3.92878639216723
H         8.49181565592121    2.32652552724413    2.61636207819783
H         7.23077923707352    3.07653947685835    1.49013153328432
H         6.79704284747534    1.25708536671104    0.45984420109373
H         7.70192332321631    0.29270558641926    1.48044472494533
