39
 energy: -54.526100028219 gnorm: 0.108726451557 xtb: 6.4.1 (79825abcba525fcdf90b791dcacef51065a7a4e7)
C         3.15708367346325   -0.76228486883947   -0.83991793453333
C         2.31645402978066   -0.15896858955773    0.29007827234527
C         0.87333382912571   -0.68503170635087    0.25898801607640
O         0.03814143408296   -0.42620619553131    1.38330181427406
C         0.37364404796940   -0.96044670613834    2.64799970042518
C         1.57504908757468   -0.38395629142095    3.37337501391841
N         2.28968390972519   -1.13883143409302    4.14378648300427
O         1.68455936409015    0.93354722294385    3.56305738340212
C         1.29107814050162    1.85827914605183    2.53129106535178
C         2.49619431499999    2.15568249481339    1.62211926085221
C         2.38229040071408    1.38577579811785    0.28287697718946
C         3.84738902109070    1.81728755454451    2.30804516627313
N         3.93007192226171    2.25365678301344    3.61011063676416
N         4.79828076067828    1.40125587646313    1.54196251588429
C         6.14945907837535    1.25146760070938    2.10263645971918
C         6.36319632879505   -0.02732683602666    2.92901270543604
N         6.99299412507909    0.46885150126501    4.15467723474872
H         3.24405981476024   -1.85324259239174   -0.86042014239883
H         4.17541657181543   -0.36427488810679   -0.77232350782030
H         2.72729121573366   -0.53868528873937   -1.81419638720302
H         2.74874767412674   -0.48397995064646    1.25069647237120
H         0.88888916825731   -1.76770514050093    0.15596171127793
H         0.41111820979835   -0.24105183682677   -0.63176959466094
H         0.58194163276709   -2.03697496102558    2.66730818479477
H        -0.55196521663606   -0.71364912458527    3.16883548734644
H         2.14086013317158   -2.15799769965467    4.09057681881111
H         1.16464681619030    2.75461867625863    3.15557214327969
H         0.38080956040905    1.58855938058191    1.99323793397325
H         2.49930685571987    3.22202910571821    1.33322305953519
H         3.30549852314777    1.70470824787589   -0.22010422472195
H         1.43901304366071    1.80887352320333   -0.09263602255456
H         3.07590707390960    2.38634120856715    4.15045671793884
H         4.75667602486726    2.06871960240508    4.16507315104859
H         6.43995501953315    2.09386780900948    2.74186258576229
H         6.75745629249579    1.40612890481020    1.20293840672876
H         7.00942841229047   -0.78629596684950    2.47408800521405
H         5.39822168262976   -0.43216297738343    3.25062447921801
H         7.93667990167019    0.83246377608910    4.00099529179805
H         6.95025737856083   -0.18562009347149    4.93201740329369
