39
 energy: -54.520128581178 gnorm: 0.120542929518 xtb: 6.4.1 (79825abcba525fcdf90b791dcacef51065a7a4e7)
C         3.51091382608421   -1.51093863715942    0.16623719435362
C         2.53562508428173   -0.61583625196721    0.93769282275870
C         1.12073651111811   -1.07331943390873    0.55155239133878
O         0.08604104575760   -0.29076145369385    1.13945274981480
C        -0.18328372314049   -0.64922565076267    2.47975245047253
C         0.82589726012451   -0.07683122580572    3.45740423453569
N         1.38546426620233   -0.67412012111341    4.45950403189429
O         1.14629904369937    1.21974362421095    3.45252682972824
C         1.27508369186178    1.96966459460023    2.22960761818888
C         2.66345893807765    1.90875282454040    1.56926599488674
C         2.72503886325316    0.83927500419370    0.45046062853912
C         3.83089814646627    1.76452556713549    2.58268437990020
N         3.55540984837605    2.42401244047625    3.75818951933989
N         4.97625143077223    1.26095550905294    2.26845016918860
C         6.09485624094097    1.08425838255438    3.20652055407937
C         7.39822259339106    1.18001857191496    2.39660533052628
N         7.41392449746370    0.39499566792935    1.16024606473962
H         3.42168353050353   -2.54071981996897    0.52646299240437
H         4.50821065100756   -1.06533705335142    0.24882728669340
H         3.25016468477917   -1.52524750249190   -0.89004969063331
H         2.82898830667466   -0.67219965031594    1.99885195788748
H         1.02070293342823   -2.10329392439304    0.88649119304605
H         1.13397545799036   -1.04176258580656   -0.54527915250656
H        -0.22360004174245   -1.73314190529838    2.64153608618032
H        -1.15470680316652   -0.22699264816733    2.73857279907219
H         0.95644676705095   -1.61076977752355    4.50757768343709
H         1.09196701123500    2.98787022941458    2.60224935519201
H         0.53688545689951    1.66947351233835    1.48409604537465
H         2.84334836410901    2.88509443073854    1.08453650877941
H         3.75369425478824    0.82445669070887    0.06488346790072
H         1.92964200421085    1.08036812453041   -0.26996412141280
H         2.70606254813175    2.95876764131761    3.93657861971100
H         4.24172609200233    2.25892789300030    4.48425880726887
H         6.22416261516514    0.08006111605979    3.62783249790486
H         6.21490245172046    1.86299093338620    3.96954206992558
H         8.30708048515484    0.83433775923552    2.90166833818294
H         7.49914922283152    2.23676667023678    2.12902398256715
H         6.43485346534405    0.57490878990523    0.92481867700082
H         7.37788208694527   -0.57808393713751    1.45390277395999
