39
 energy: -54.526013685544 gnorm: 0.109211263705 xtb: 6.4.1 (79825abcba525fcdf90b791dcacef51065a7a4e7)
C         3.25096651119520   -1.42076590595364    0.03490713076224
C         2.25097201406770   -0.47744612433492    0.71144166133621
C         0.76632197976874   -0.79805119093861    0.48050525947105
O         0.00707152211719    0.19872954723654    1.15769461804440
C        -0.47284339156012   -0.15573624620612    2.43889380930064
C         0.57495006341202   -0.29433113983317    3.52738127510640
N         0.72000716245221   -1.31863741629810    4.30444520073815
O         1.61144595974148    0.54582684274370    3.58736663821700
C         1.66295754106983    1.79104009116604    2.86536327627801
C         2.76014642702982    1.74923647575073    1.78750610097685
C         2.45588204605643    1.03236159173237    0.44854609141824
C         4.20686060485996    1.39008768666632    2.22197454527109
N         4.46329250543012    0.33149481477402    3.06236305020300
N         4.99988854823923    2.24586862287983    1.67160581222326
C         6.46499120711050    2.19618255228229    1.78770970699945
C         7.29068285187198    0.98423500275226    2.24956785202291
N         7.12382077980257    0.89049402409604    3.70162205724885
H         3.17819700523454   -2.44927860270513    0.40238526800034
H         4.29883251030664   -1.11468962267460    0.12588515812979
H         3.10996382650439   -1.39561387188861   -1.04371349559168
H         2.53610807317073   -0.66250984255049    1.76012958889718
H         0.53037640191049   -1.78983819361959    0.85961789335519
H         0.44809242029455   -0.73330402910477   -0.56770668769027
H        -0.98493331324081   -1.11260333917434    2.28127695810396
H        -1.10719919165848    0.68511070144732    2.72085233278036
H        -0.07503405929671   -1.95659303762012    4.14759575550836
H         1.91511276694963    2.56039067026654    3.60944238248323
H         0.64856814326857    2.00101079969422    2.52219384775545
H         2.85029058594361    2.80973433677371    1.49122223469026
H         3.34695693163454    1.28152348662003   -0.14384325547964
H         1.62768868760232    1.55723938293333   -0.04984424801895
H         3.69468709419254   -0.14925030041074    3.52852448351041
H         5.26386881429117    0.42582544931296    3.67525684130988
H         6.73061634962749    3.01959811923763    2.46155399783781
H         6.81274013212196    2.61072349952684    0.83363224760265
H         8.31941155291365    1.22727062636279    1.96102414124921
H         6.99255011922588    0.02710095816779    1.80966582938293
H         7.37578258327413    1.80900273135658    4.07475993368178
H         7.68832630495748    0.11102392368082    4.03052494476093
