39
 energy: -54.515722947089 gnorm: 0.110898927537 xtb: 6.4.1 (79825abcba525fcdf90b791dcacef51065a7a4e7)
C         3.12087308501080   -2.38526598368904    1.30689073542576
C         2.19873492029199   -1.16553072365461    1.40408780079294
C         0.71797044412911   -1.52564053662075    1.20924830953604
O        -0.17208328789985   -0.42315011711037    1.06454950457151
C        -0.63636395860864    0.23772926507002    2.22434155093782
C         0.52519294779684    0.39777400334911    3.18717895259893
N         0.63754286631559   -0.30278245149151    4.26915464417848
O         1.37926027456246    1.41834002276574    3.07403561155742
C         1.81394507733304    2.05114972603359    1.85538909727528
C         3.01655196302030    1.36680299179604    1.18251963271483
C         2.61251274934259    0.02917228534983    0.51409108625609
C         4.28110053248218    1.11693989516032    2.04809340235728
N         4.09391200109562    1.14200067947820    3.41079713023969
N         5.37770058216876    0.97013126147562    1.38471144326508
C         6.74122402579431    0.85232092694739    1.92266977918984
C         7.04287647424506    1.96515442164256    2.93977543944085
N         7.76970783851178    3.12840333631100    2.42629723593962
H         2.88770273150644   -2.97173747796878    2.20123782972018
H         4.18668700968346   -2.17284692701406    1.44437406276948
H         2.92075717548377   -3.03594230966395    0.45806167412431
H         2.37523418635313   -0.76884944508915    2.41739401707189
H         0.41725636762704   -2.12678925889956    2.06436784435751
H         0.53884085588717   -2.17635621400284    0.34397827822213
H        -1.47023905030437   -0.29297451380437    2.69939904418664
H        -1.06215834602011    1.13086522429897    1.76615079202496
H        -0.20706458305742   -0.85351211171821    4.48598352335052
H         2.11186288187775    3.07994576645996    2.10430670477691
H         0.93940377000511    2.05176239894677    1.20269013047627
H         3.33239321471464    2.07411462290194    0.39478848489321
H         3.48324175792007   -0.23698096740320   -0.10073789218140
H         1.71860634166966    0.08302601899138   -0.12452067098216
H         3.14894940621929    1.34108372305536    3.73727571439611
H         4.78483083484834    0.75430204893387    4.04149549503963
H         7.34862110304539    0.82205052591822    1.01009729676733
H         6.84430543718297   -0.18012129070576    2.27830245418221
H         7.63937339751696    1.79959972402118    3.84387144585180
H         6.09281582999827    2.34225792395984    3.33179612877224
H         7.36203763353978    3.48106261841119    1.55692314843587
H         8.78160921104184    3.02770157571738    2.40807634454922
