39
 energy: -54.517921596215 gnorm: 0.117678054152 xtb: 6.4.1 (79825abcba525fcdf90b791dcacef51065a7a4e7)
C         3.73275419219642   -1.46520595825684    0.47128490847299
C         2.53738632419142   -0.64060199531473    0.95981755192230
C         1.15228998739719   -1.06671917429888    0.44968302136553
O         0.09590218822748   -0.25375317132180    0.95142958634359
C        -0.30731429831236   -0.52737427438339    2.27807333497726
C         0.58830790623161   -0.35602140803336    3.49066711516322
N         0.85276564573585   -1.24837021099541    4.38947129838001
O         1.09674937955082    0.84922295679824    3.76022359871700
C         1.35936438996360    1.86747386941099    2.77599966795243
C         2.65532532039684    1.74059357331190    1.95640602939661
C         2.76904214159638    0.86319868885363    0.68497101014026
C         3.96873627070593    1.56273478412555    2.76513993360655
N         4.02539653957454    0.61142232943854    3.75732100153691
N         4.96211614684301    2.21225861357700    2.25969429448400
C         6.33947209094695    2.42066997344859    2.73078870295866
C         7.05232698966951    1.19105500855189    2.14445990243634
N         7.17560514044161    1.06587401589128    0.69042277836891
H         3.58905545510667   -2.53570485837906    0.64892704557296
H         4.60420790670594   -0.99200452627411    0.93672199053610
H         3.93943518493174   -1.33055775081221   -0.58847434019830
H         2.50135839987832   -0.70481894296558    2.05976104732002
H         0.91407434439937   -2.05953453158077    0.82466187092690
H         1.20672251322358   -0.98227497876110   -0.64307349876681
H        -0.70298245322320   -1.54970592326206    2.24711364948905
H        -1.17566195112090    0.11658711732836    2.42026178533035
H         0.40738310390706   -2.17180145266473    4.27727149559345
H         1.43199656407040    2.79901448764794    3.35573489175502
H         0.55352921778340    2.08059500544580    2.07169301337275
H         2.77764656358747    2.78846557378173    1.62843102622547
H         3.84264047608747    0.90262887898551    0.45507294465914
H         2.12649824105859    1.28201154004415   -0.10339882187674
H         3.08379350318418    0.37849765615506    4.07085961021087
H         4.78579319257120    0.53385493255882    4.42157977642616
H         6.39020725742519    2.50927072140201    3.82267326173965
H         6.62339750522395    3.37830760354988    2.27762885723708
H         6.55049010435107    0.33810301733846    2.61482058954816
H         8.06282528080795    1.02532093996603    2.53166517903685
H         8.05755388636359    1.41126175238217    0.30409572600586
H         6.44475008279058    1.64010244873913    0.27747020579715
