39
 energy: -54.526818229221 gnorm: 0.107734044003 xtb: 6.4.1 (79825abcba525fcdf90b791dcacef51065a7a4e7)
C         3.22587545344402   -1.98560792558782    0.24717898470413
C         2.45989973514875   -0.82870753430185    0.89710424439686
C         1.00201964440707   -1.21598355110092    0.60571471910732
O         0.05268639989392   -0.29785651077137    1.13903229360765
C        -0.44501760467832   -0.46536571717998    2.45115540649442
C         0.61892055228906   -0.27697514366485    3.51625126574455
N         0.86422663815126   -1.08420277751305    4.49721084842492
O         1.35061215571347    0.83765879015627    3.59374958189045
C         1.50386816785333    1.74751510360114    2.48777833567307
C         2.79056022694497    1.63621040189758    1.65148778063301
C         2.81647627177426    0.61807310244188    0.48442947846037
C         3.98709627908486    1.48108917802459    2.62871420691051
N         3.68893749944257    1.74729382053062    3.94509769253509
N         5.12018913962209    1.31600985884003    2.03456820392294
C         6.37280936443938    1.24205338002654    2.80134565405708
C         7.54365039070235    1.40967766211785    1.81903718744844
N         7.56984600111470    2.79774884730757    1.35249252623173
H         2.58903494561800   -2.83517036422217    0.51335896541021
H         4.25447445306462   -2.10225121403313    0.60545441259912
H         3.23436115503969   -1.87665472516140   -0.83540774444292
H         2.80061300558335   -0.94978858408841    1.93852219681287
H         0.69749664357271   -2.17945951383501    1.00822927189586
H         0.86319521555744   -1.13150555472198   -0.47955104295264
H        -0.79274600042725   -1.49552017594658    2.59447511684456
H        -1.27793655674879    0.22606358499294    2.58193386236885
H         0.21624918468502   -1.88589066506308    4.53039837651679
H         1.60409810673726    2.69186532557978    3.04211840189566
H         0.59808557583012    1.72705265048186    1.87952017637366
H         2.96140778868443    2.66727093869627    1.29331034337102
H         3.83842618318367    0.60722810668784    0.08128931912676
H         2.15708665872324    0.96708474694857   -0.32377226750471
H         2.81248345563072    1.43689902889474    4.36302114636935
H         4.51060752443224    1.69838967735993    4.53495043418511
H         6.32468089334338    0.29377775168515    3.35006509898588
H         6.57760332988226    2.02883832295514    3.53759710420876
H         7.35558890262972    0.80944934072957    0.92183856213680
H         8.50646829764820    1.21908908195585    2.30397035382263
H         7.83530284861692    3.38724348857629    2.14521164522789
H         6.62411199355042    2.98731456542393    1.02989484834627
