39
 energy: -54.523746921037 gnorm: 0.105820897789 xtb: 6.4.1 (79825abcba525fcdf90b791dcacef51065a7a4e7)
C         3.36395181211589   -1.25477460629473    0.16599906638241
C         2.26064179274830   -0.48530263241780    0.89959300863097
C         0.90406261064560   -1.08167301347709    0.49420400892348
O        -0.15730516202436   -0.35053878833465    1.10047103597026
C        -0.38461670218450   -0.41843726763844    2.49372439332556
C         0.69112879221504   -0.12345767668502    3.52214222775733
N         0.97956130145102   -0.98484384009076    4.44349654540603
O         1.33391159423193    1.04557760353134    3.58518307727279
C         1.51547940495538    2.03970903562862    2.55891112903025
C         2.75996718445990    1.92963694754166    1.66086805527061
C         2.48169514501469    0.98260095252764    0.46713952082251
C         4.18642700229878    1.66795239660597    2.21536437350272
N         4.26467555645571    0.68408692895482    3.17375623562458
N         5.13444032488214    2.39004719577878    1.72139076137177
C         6.44943725765288    2.22529351647388    2.35866146444315
C         7.22849862124489    0.93441989259951    2.05765447440695
N         7.13477524356631    0.04703556373167    3.21905738698560
H         3.54729595150637   -2.25007188642508    0.58306285547071
H         4.22173656551227   -0.57816395061651    0.08608543829875
H         3.02011045908263   -1.42366607613664   -0.85242404642442
H         2.40381347539548   -0.57422062900102    1.98903918674829
H         0.85827039803696   -2.12149763110028    0.80996657525223
H         0.74535825491163   -0.89542144300618   -0.57553138496882
H        -0.85297498750480   -1.38400055433844    2.71956024524493
H        -1.17103711103859    0.32559382365058    2.62369416210435
H         0.44845450764241   -1.86776288025294    4.39811815475149
H         1.56995920830569    2.96844503618568    3.14510023762845
H         0.61177560365184    2.16927546858930    1.96110616345161
H         2.80373022070001    2.90349364933542    1.14100872435861
H         3.29217648881793    1.11799080079320   -0.26211408063694
H         1.59815549785180    1.42815490711729   -0.01310337152135
H         3.43983322686525    0.74359397074740    3.76980211397325
H         5.22799800439220    0.54204417936609    3.45177282585866
H         6.31738668177268    2.34226093762324    3.44102799969843
H         7.01340363756085    3.13315772331645    2.11216232823077
H         8.24662446080246    1.28887243103551    1.86172155706878
H         6.94335893693630    0.49186385194422    1.09778885117257
H         7.81595146698912    0.26771890220524    3.94958643351464
H         7.40929108575695   -0.88116181131451    2.90679480317115
