39
 energy: -54.528826183504 gnorm: 0.100278087836 xtb: 6.4.1 (79825abcba525fcdf90b791dcacef51065a7a4e7)
C         3.05214957385074   -0.99992719667554   -0.61860170040272
C         2.38683861723443   -0.30086868775786    0.57144817749311
C         0.94360113586907   -0.82697668044337    0.54734671207051
O        -0.10853491214478   -0.25020682654202    1.31478711646257
C        -0.17113546117901   -0.70484891677262    2.65150601506290
C         1.17367567109297   -0.55533687751981    3.33781043599060
N         1.76075740386041   -1.50438902980508    3.99256861414073
O         1.79122838007683    0.62888338628142    3.34400750624633
C         1.48257871636540    1.82650106680845    2.60580320794753
C         2.57096315476949    2.10944234355615    1.55570290766579
C         2.49874228263389    1.21581338340737    0.29256723495827
C         3.95902611720142    2.04955567379078    2.24883160576730
N         4.00235256096027    2.25402384671946    3.60859064141378
N         4.98104346659172    1.85039462655738    1.48727038131301
C         6.28141649846560    1.63610428667442    2.13963858596021
C         6.55412827270640    0.27777190208181    2.80631537616165
N         7.32397866694105    0.49182015273490    4.03375395199766
H         2.96344774459150   -2.07398236679978   -0.42699942989929
H         4.09693056871075   -0.67257738959264   -0.58313868200392
H         2.71321703241383   -0.67612742111839   -1.60054633931882
H         2.94887373350455   -0.58509554590600    1.47622943474685
H         1.02331513157688   -1.90054255705846    0.70271769356734
H         0.62655487486434   -0.65450082283058   -0.48896611622152
H        -0.58746069819976   -1.71931797525563    2.63737786267721
H        -0.88897675686962   -0.12764217321315    3.23500212705014
H         1.25966010691085   -2.40228222028165    4.07237446294597
H         1.50698684996965    2.63493360640832    3.35077123277962
H         0.48466286612750    1.74275267056393    2.17222626538445
H         2.47323357607322    3.13235004976873    1.14990179651919
H         3.44686222688369    1.38350575354352   -0.23655380191302
H         1.67005123224961    1.61108917398854   -0.31309112684546
H         3.20532023640257    1.94391967377202    4.16334420185692
H         4.85098802034833    1.84725147760308    3.98250721201324
H         6.58225660478326    2.50045113711519    2.74382050747547
H         6.93082754158015    1.60986248798766    1.25611496697703
H         7.12918506539200   -0.37029174351257    2.13554736231405
H         5.59329129777732   -0.20577339620231    3.00997870918671
H         8.11210217498849    1.12321014658057    3.87071137511551
H         7.57877143782593   -0.40716587902612    4.43540304448314
