39
 energy: -54.531880260569 gnorm: 0.089701101858 xtb: 6.4.1 (79825abcba525fcdf90b791dcacef51065a7a4e7)
C         2.87598161807663   -2.45151517204028    0.96302240295314
C         2.08138231615668   -1.16193977345557    1.19355964495191
C         0.58872341430497   -1.27797546875674    0.84887127682799
O        -0.16319375718114   -0.08583668648863    1.05391813006085
C        -0.49968610267947    0.22904831939967    2.38997801874893
C         0.65110417906312    0.50106612826309    3.34054241881248
N         0.80959770998554   -0.12197476723297    4.46338394786265
O         1.42507838668616    1.56113046908755    3.09353038472785
C         1.84661652457878    1.95895400952627    1.77499317904097
C         3.13408520562310    1.26709233853761    1.29426568137258
C         2.69980598550364    0.04384090372464    0.44906877236469
C         4.26801497767084    0.93499617221094    2.30156305561751
N         4.11468615256733    0.21974674738231    3.46669720116993
N         5.44131328514109    1.24454088388865    1.86371234286722
C         6.69790080727212    0.92158003957208    2.55592527099553
C         7.44843010892499    2.21303675169802    2.92026282846933
N         7.30160451033473    3.29045942302818    1.93909292815927
H         2.38649993024068   -3.27681916858037    1.48976232255429
H         3.89364067078649   -2.33215937415303    1.35045896997241
H         2.84465979461152   -2.58601944300092   -0.11626642997588
H         2.12250339151825   -0.93715907453833    2.27202161141776
H         0.17133152059536   -2.11241936357523    1.40791113032852
H         0.44569932420771   -1.56666516095746   -0.20013439746538
H        -1.17657330479648   -0.51702006322626    2.82342868334830
H        -1.13013607730714    1.11388675473287    2.29764571844392
H        -0.00451051991168   -0.74512036042004    4.57562043173171
H         2.04180119468044    3.04109563692773    1.77794867671630
H         1.07223845330753    1.74524493521329    1.03640949647412
H         3.52444615350818    1.94376190300049    0.51304712386466
H         3.61747197867737   -0.35912374866652   -0.00096439869555
H         2.06797218906464    0.50936079845013   -0.32156158903178
H         3.24469995963600    0.05835586424289    3.97291220654564
H         4.97483064133655    0.16338240887758    3.99814241974947
H         7.31051939598377    0.39000678203615    1.81784371407952
H         6.61754143850641    0.24487130605877    3.41536984413958
H         8.49303535782352    1.91611929352794    3.06602438467268
H         7.13967632996101    2.67969438700768    3.86122205103766
H         6.28169078081250    3.30584832291815    1.86219014539977
H         7.68419405102610    2.92676632413701    1.06974270586296
