39
 energy: -54.523561898548 gnorm: 0.125394044955 xtb: 6.4.1 (79825abcba525fcdf90b791dcacef51065a7a4e7)
C         3.51112222998913   -1.54692070016780    0.24045468450026
C         2.40930719015983   -0.66372308078122    0.83501818697142
C         0.99625496080074   -1.21983899016063    0.60194428626535
O         0.06851334790093   -0.26308715159645    1.10447781210402
C        -0.22599693049871   -0.49046979787195    2.46792803911822
C         0.92293201796287   -0.25844603388697    3.43126177429535
N         1.39854589513682   -1.02658640862118    4.35745023355463
O         1.44842833665628    0.96803833550720    3.48937496090113
C         1.41529859450532    1.99832383088503    2.48343631118412
C         2.65119386949249    1.85632357068511    1.57803809896566
C         2.50504688795246    0.82565208649293    0.43101688341559
C         3.98434786084991    1.84455691309895    2.37383619528111
N         4.27443738126533    2.93253123904804    3.16427214855633
N         4.59389733241620    0.71445882448514    2.24938596806854
C         5.77869620487146    0.55548927525554    3.10580583077253
C         6.96912422899604    1.43359974456917    2.68664040132528
N         7.67919971985760    1.03226079135511    1.47016533540463
H         3.35731650918978   -2.47456094544490    0.80081290021574
H         4.44046065676077   -1.09483239889137    0.60367514712805
H         3.49034753104498   -1.79639466777894   -0.81844473714715
H         2.60558911217693   -0.66177752410337    1.91980717171030
H         0.87643964689678   -2.14581565315906    1.15984183390248
H         0.79527694582112   -1.37658374676293   -0.46541200479293
H        -0.64481659722821   -1.49058476152880    2.63234805247503
H        -0.92443182814563    0.29621818640964    2.75470703492000
H         1.04955275006506   -1.99094253927591    4.24835987947696
H         1.46319031931230    2.98695922052758    2.96243813389518
H         0.47366398036638    1.81754843243576    1.96239568775076
H         2.69102760986643    2.83322011573517    1.06359448727277
H         3.41333066154231    0.86862986585302   -0.18558244689567
H         1.68877944271069    1.10132529344477   -0.25272693144597
H         3.63495358609266    3.70352845171405    3.35348209659071
H         5.01314936532877    2.88990418455685    3.85560928527596
H         6.03807779528903   -0.50626857627471    3.01620946720787
H         5.49123983333837    0.68635548115598    4.15617728555342
H         7.64363251349801    1.35859426635392    3.54688413919661
H         6.70907810631184    2.49095776214799    2.57318317741577
H         6.95677685103306    1.06843657885970    0.74685946463228
H         7.99130921682498    0.08305627834637    1.65994333856983
