39
 energy: -54.524283163008 gnorm: 0.112776801983 xtb: 6.4.1 (79825abcba525fcdf90b791dcacef51065a7a4e7)
C         3.53952170061920   -1.45083435599251    0.02960336731469
C         2.58006306182584   -0.65438805292983    0.91991375282811
C         1.17025481838944   -1.19609679255494    0.63831598310505
O         0.19910092016290   -0.24270034968240    1.05845149229616
C        -0.34909406753139   -0.46222400615344    2.34247925526894
C         0.53367841112228   -0.17457085525782    3.54241801338067
N         0.69192254955876   -0.97083212716438    4.54989010685400
O         1.14768774487548    0.99555503198766    3.73628743111637
C         1.40155816221132    1.90613244205392    2.64959662534934
C         2.74003820702891    1.79067605096166    1.89960458358269
C         2.66467840196114    0.86714022698028    0.65835409208353
C         4.07051127995060    1.51194214913752    2.64985880163565
N         4.11703666598801    0.43790603535791    3.50829392078150
N         5.05879873373606    2.31592326201063    2.44722032912254
C         6.39759119894679    2.10355540444960    3.01731617000982
C         7.27080805629582    1.12858127299017    2.21058555513921
N         7.14713855651121    1.34236347756510    0.76694613850174
H         3.20859577517433   -2.49419740143098    0.02215087858991
H         4.57806265570460   -1.35196848495869    0.36373069372810
H         3.49173624782557   -1.13439810663650   -1.01035888545369
H         2.74107477935715   -0.85203958228700    1.99243723053553
H         1.04769124120061   -2.23389397094485    0.93996701320671
H         1.04848580216917   -1.31520653468105   -0.44574845607059
H        -0.56000917402577   -1.53054443326991    2.47240259382406
H        -1.29964324897615    0.06590672294792    2.42288856011371
H         0.19091043331660   -1.87111648179538    4.59630777212014
H         1.38226782799932    2.79820702159329    3.29222179886950
H         0.63712790874617    1.72608506419001    1.89192377754322
H         2.76554117558908    2.85876572115320    1.61835761503500
H         3.55616679675316    1.12142513627316    0.06877046213514
H         1.81004987649601    1.25666957041927    0.08592869081720
H         3.22483079116549    0.09971479379167    3.86714206784413
H         4.93978488328695    0.36959661790223    4.09470562951180
H         6.27652014998566    1.67764254170001    4.02059882140222
H         6.76307104303831    3.13579397376298    3.08012808981950
H         6.96490365723565    0.08336760795146    2.33123970745885
H         8.31321439292168    1.19525221074027    2.53837591147223
H         7.64878373233176    2.22342571165088    0.63109206743173
H         6.15626304062026    1.36444679609487    0.53870224575235
