39
 energy: -54.525537729129 gnorm: 0.108361830721 xtb: 6.4.1 (79825abcba525fcdf90b791dcacef51065a7a4e7)
C         3.41212403363826   -1.59313839229811    0.18096324573722
C         2.38560789970014   -0.75587150641878    0.95089119314977
C         0.98318042872660   -1.17814360034453    0.48700704686853
O         0.02321363273085   -0.34826153277920    1.13382855285853
C        -0.37262229108332   -0.65468935585156    2.45551370197350
C         0.59968582747276   -0.34462566370395    3.57817221277680
N         0.38475596828085   -0.95432726371743    4.69894980555523
O         1.46426309246494    0.67335695896456    3.57593116437819
C         1.41787643504054    1.78068455413351    2.65605491626618
C         2.71412646429483    1.78366968311708    1.82715545960665
C         2.56615805500037    0.75532271778582    0.67828277660332
C         4.04060113030840    1.56216836497427    2.60312911127881
N         4.00691537201730    1.62929551423074    3.97680611895499
N         5.14852251143981    1.33125796440866    1.98397571356364
C         6.38655402747250    1.08886694910792    2.73962068894681
C         7.62604400229994    1.32642042991238    1.86148087408834
N         7.69736738008757    2.50320039960497    0.99246209129423
H         3.49717369284613   -2.59512162027519    0.61336368017124
H         4.38407644659814   -1.11125821537457    0.33289370892441
H         3.17718624749990   -1.59086996943217   -0.88145660790983
H         2.46257246030537   -0.88841681574569    2.04258976128020
H         0.84438011514047   -2.23031757221181    0.72513010718662
H         0.83800024002066   -1.04987103332545   -0.59312230599298
H        -0.63761883741140   -1.71486333529761    2.54761026314143
H        -1.26297909680076   -0.03593814202558    2.57102643047425
H        -0.26158654408978   -1.75154431840535    4.59713625503458
H         1.43718003372178    2.67646647349927    3.29350176153138
H         0.44542880467031    1.68910724498198    2.16943586527264
H         2.73179529710178    2.76789783622571    1.32560916670711
H         3.40032238614313    0.93509703722449   -0.01372327005557
H         1.73144936825447    1.01245691789673    0.00974904423144
H         3.11607686631050    1.79141129289041    4.44510296205050
H         4.72286188066791    1.43479778511753    4.66604541256269
H         6.43888586241782    0.06305650783281    3.12382167868177
H         6.39522375799110    1.82458082910778    3.55306231224380
H         7.78840626307244    0.45493277125296    1.21746666096995
H         8.49767007967728    1.34459215490681    2.52362911222916
H         7.57027546658092    3.36482532154233    1.52895534811657
H         7.00773622417230    2.46837668061785    0.24572691929817
