39
 energy: -54.524868771792 gnorm: 0.104710097479 xtb: 6.4.1 (79825abcba525fcdf90b791dcacef51065a7a4e7)
C         3.52351249053581   -1.34468977587873    0.28100412504816
C         2.56990050130364   -0.46062996883676    1.09131432752650
C         1.19171505396421   -1.00646237212851    0.68761044776649
O         0.00943132241568   -0.27268421729232    0.99157314434556
C        -0.44507606376996   -0.52416259070571    2.30596172976916
C         0.70454464264448   -0.50608573481834    3.29587591028925
N         1.23189128490227   -1.54035395428924    3.86707466224855
O         1.19221932877407    0.67892736315892    3.67231285554192
C         1.31526182413579    1.77558142124575    2.74672723447276
C         2.60940048151400    1.91774439350329    1.92676264882499
C         2.70850865786658    1.02007539393037    0.66832382471523
C         3.96007938770218    1.76929397164740    2.67800267609680
N         4.06574179332639    1.26259597492196    3.95264837461248
N         4.99596410480038    2.23532937200759    2.06651763134400
C         6.32172085250903    2.30894551061836    2.69851791832841
C         7.21856022503413    1.08352831277093    2.45783480863097
N         7.11890940858402    0.60521393901011    1.07711875609548
H         3.47000085010894   -2.40877229940708    0.53207949559366
H         4.56589737329026   -1.10751632095842    0.52009690732889
H         3.44244309117615   -1.26339584739970   -0.80101061102264
H         2.81755843636354   -0.49943354577348    2.16483999123675
H         1.21119887964546   -2.04769913806908    1.00143291904758
H         1.14808163237131   -0.90164314022168   -0.40386543048817
H        -0.94327574803042   -1.49777077468855    2.38694303010021
H        -1.18712201247297    0.21984664346563    2.59707948060192
H         0.82152782746041   -2.44794549076949    3.59956933621140
H         1.25796229365278    2.67010321190005    3.38366037248161
H         0.57776285800620    1.69791658937145    1.94616351339491
H         2.57797692122365    2.98271657947991    1.63450829552302
H         3.75272391592101    1.16131983227618    0.35738050120787
H         1.99096819001797    1.24995210883039   -0.13297901506256
H         3.27801487577114    0.70007461780011    4.27238680673775
H         5.01738169557601    0.98705735180477    4.16221810222885
H         6.15625394518859    2.62476067892492    3.73558953009536
H         6.73575264357470    3.11514460014641    2.08073314280855
H         6.93873907034757    0.30802573979333    3.17957050414347
H         8.23783761873712    1.47432339525821    2.54063156882179
H         7.00565222049323    1.40909498454506    0.45476600629509
H         6.22568211544638    0.13167035723309    0.96612905027487
