39
 energy: -54.522769903408 gnorm: 0.112975624274 xtb: 6.4.1 (79825abcba525fcdf90b791dcacef51065a7a4e7)
C         3.19127340445528   -1.05891276343124   -0.42028090853237
C         2.33669762906448   -0.25504557503934    0.56513167411197
C         0.93090801911936   -0.85630755673684    0.41498326760578
O        -0.01179375157049   -0.15541315228786    1.22038932906939
C        -0.17513963128730   -0.60947430314179    2.54876513585638
C         1.11650094825698   -0.53950846258080    3.34164219198525
N         1.66348099566935   -1.52547380915582    3.97627469758059
O         1.84758917165611    0.57404322486894    3.43807909344653
C         1.45663609901269    1.72044250798684    2.65870580642250
C         2.60813435292112    2.10974985033336    1.71539319663580
C         2.44037899413259    1.28058979067122    0.41783700648210
C         4.02826621753025    1.90284028377436    2.30796938133859
N         4.13538030495646    1.98457571848055    3.67708403625236
N         4.96148092447444    1.77292098780170    1.42683864492278
C         6.34996616197682    1.66470275463554    1.89893208318999
C         6.48337896052434    0.40281904514251    2.76711815899645
N         7.35429349354699    0.65551877313487    3.91722357498632
H         3.26880931139682   -2.12890129759678   -0.20282592913126
H         4.16932476995749   -0.58387212703949   -0.55345284389591
H         2.78727330273264   -1.00919538605199   -1.42936412388729
H         2.66219383802322   -0.52487886919037    1.58323762351827
H         1.02927626083916   -1.90599326858576    0.68241878251330
H         0.58270355257201   -0.73454064954479   -0.61852386897916
H        -0.52310758023037   -1.64699370079174    2.47703230059809
H        -0.97487335928611   -0.07965866887292    3.06708244401090
H         1.01084888533682   -2.32402191107551    3.98475553757186
H         1.09862394353869    2.54465804429457    3.29245049705064
H         0.61432652496427    1.49174928568770    2.00368457289141
H         2.57980397454075    3.17355561932256    1.41860965052920
H         3.23852779173540    1.53032477723687   -0.29463205607603
H         1.52864614269758    1.76223437331817    0.03501122836583
H         3.31117299701808    2.24180154025210    4.21901929117864
H         5.00708048672600    1.84711167892577    4.17377500499274
H         6.51218278906440    2.53362699437341    2.54800255808349
H         7.02718099465235    1.67554469231001    1.03620394518010
H         6.94978069189718   -0.43778361636192    2.24132055069425
H         5.47860281633203    0.08044756473146    3.05867267119713
H         8.33873487227696    0.79024155458606    3.67411904017475
H         7.14261851386631   -0.10990679445607    4.55262473919292
