39
 energy: -54.520071400795 gnorm: 0.108155732104 xtb: 6.4.1 (79825abcba525fcdf90b791dcacef51065a7a4e7)
C         3.30818587518003   -1.94392763658322    0.71034292702337
C         2.28362471172185   -0.88882057941771    1.13995166439037
C         0.83911573044888   -1.21128360690803    0.72798526842181
O        -0.15994711130269   -0.23481967917034    1.00549227938260
C        -0.60167422721974   -0.18380895090878    2.34702526116828
C         0.43208641193000   -0.29109213991144    3.45233692622955
N         0.58051206245030   -1.34042224083023    4.19459658936076
O         1.21882183288064    0.75006852229752    3.73662421817590
C         1.44349976710501    1.80007966848888    2.77667904614829
C         2.70333553396915    1.64744720493542    1.90669960872023
C         2.70196530927994    0.56096039535638    0.80268656423250
C         4.06470779412223    1.60693296883827    2.65219054660302
N         4.00156514978776    1.26294102365784    3.98272110673529
N         5.09784791366451    1.72493465725723    1.88873972355227
C         6.46059788854120    1.68823320741618    2.44013807631975
C         7.51939479838663    1.26997894526122    1.40674125220183
N         8.28930994353490    2.42767385986709    0.94623620968911
H         3.06083763075915   -2.91071132792292    1.16014520008653
H         4.32737674497144   -1.61625455831561    0.94242731821704
H         3.20799839748537   -2.05242709612212   -0.36767709611420
H         2.20821766831326   -0.97047056003808    2.23673995821538
H         0.49106579255626   -2.05424913872306    1.32069810635919
H         0.70380996875514   -1.38804954130358   -0.34656425462324
H        -1.44020597680155   -0.87442199114927    2.49733135318623
H        -1.06909481197017    0.80126672842977    2.35570736261134
H        -0.02487107198540   -2.16723921644714    4.07812938244668
H         1.44489847632965    2.67027506515630    3.44890987616313
H         0.56943777884340    1.77270011293472    2.12391200655126
H         2.80099668143144    2.59864706563032    1.35330379970585
H         3.71577833916302    0.55565498061969    0.37939445273935
H         2.15599562842418    0.99899436166597   -0.04574563829831
H         3.12291474086626    0.99050410229275    4.42195704009406
H         4.79355981452223    1.36665226969930    4.60517424742598
H         6.61258620458984    1.15726023300809    3.38755735457225
H         6.72853218825777    2.72781643087770    2.66489405209362
H         7.06347590657385    0.76120558820205    0.55006502024110
H         8.15453666731463    0.55264203574274    1.93638742449187
H         8.96261944865082    2.61918883800091    1.69212574209031
H         7.70142218819804    3.22773523891744    0.72553955887004
