39
 energy: -54.514939188375 gnorm: 0.116678981605 xtb: 6.4.1 (79825abcba525fcdf90b791dcacef51065a7a4e7)
C         2.83498214009215   -2.50062550740350    0.72914762939765
C         2.06976869803276   -1.24813315380124    1.16875138741829
C         0.55872645733946   -1.33982979039884    0.90674372553020
O        -0.04283156504561   -0.05426995868019    1.02541294485154
C        -0.58101166231161    0.33303595849965    2.27352832494534
C         0.52879830229590    0.43819018567120    3.30267800777209
N         0.67841433925746   -0.29514791985729    4.35809428638311
O         1.49363479406476    1.35700221228218    3.20960583388000
C         2.06063888096337    1.95108447396330    2.02635988731674
C         3.24283967440135    1.17744559795415    1.41707235264653
C         2.69764380450407    0.01948194942982    0.54461492696729
C         4.33819404238912    0.91318525411233    2.48529419251612
N         3.86784265237756    0.08466376848557    3.47774105757281
N         5.47562275668220    1.48831683871897    2.28619707152406
C         6.59058292301468    1.63025837273945    3.23445392901892
C         7.47545355703445    2.68645794063567    2.55229341569553
N         7.63510537885462    2.46132898703805    1.11391933567696
H         2.61043610237925   -3.41966030505910    1.27971830311444
H         3.89667642561523   -2.28759907011489    0.89470072592777
H         2.74529128725926   -2.73126757916552   -0.33042616249207
H         2.17466479934723   -1.23846005863777    2.26611219950338
H         0.06530786420851   -2.12038213331954    1.48147347954089
H         0.40683312736305   -1.71685105168421   -0.11256678488840
H        -1.26764985759041   -0.48410211265336    2.52549490456443
H        -1.06879466369422    1.30793719010441    2.24972052227216
H        -0.11567178881822   -0.92619489465721    4.54487384461550
H         2.36787126588701    2.98039767287906    2.26143198919626
H         1.35532122297704    1.92904886262065    1.19396559079997
H         3.71175199733084    1.85391369050541    0.68013411633365
H         3.49146073621027   -0.41716277702183   -0.07684890396671
H         1.93450492452339    0.42326481013676   -0.13683376480878
H         2.89738530158179    0.14213548322901    3.78447574662821
H         4.31748991819433    0.22073418044853    4.37482616216430
H         7.12606453843467    0.67331270643847    3.22218697586087
H         6.32001134940318    1.84984089850800    4.27445962552120
H         8.44400923615088    2.88273021845648    3.02556249606555
H         6.99005722441825    3.65769406760896    2.69226945626512
H         6.73677334542871    2.68566846211032    0.67912486795740
H         7.69072852684431    1.51077645334736    0.75646558862804
