39
 energy: -54.522189571990 gnorm: 0.114383479408 xtb: 6.4.1 (79825abcba525fcdf90b791dcacef51065a7a4e7)
C         3.69104704713733   -1.69243786790460    0.72735371129200
C         2.55123136459985   -0.74200477103950    1.10819137195874
C         1.20171868118032   -1.08219857149820    0.45750814818065
O         0.16848956009614   -0.22576202335634    0.93455379088979
C        -0.41316011876227   -0.44991890167791    2.20296737775440
C         0.30481639104110   -0.01313102782458    3.46614222998303
N        -0.09405116922800   -0.50769101858306    4.59325728031611
O         1.25140139799402    0.92329849984288    3.57037266100705
C         1.42087581581595    1.85521619943024    2.48533525947451
C         2.81296624829571    1.71258439742177    1.84573576660227
C         2.84903798119321    0.70936779841236    0.66609360897435
C         4.05329690601008    1.54042748806564    2.76370879714507
N         3.89495511992656    2.13783195216398    3.99279986117189
N         5.01548923391917    0.88553051556968    2.20742112732805
C         6.37317127001931    0.88642502685934    2.77237540461291
C         7.29075687964557    1.79816222156856    1.94131074748649
N         7.78560601510973    1.22037239001918    0.68976171312283
H         3.66277370355021   -2.60828007611520    1.32619227128820
H         4.64943419619139   -1.25451745001824    1.02685768357594
H         3.63246517050204   -1.96411164200044   -0.32464360943804
H         2.39969182189428   -0.93995528291569    2.18203907047307
H         0.92774618612289   -2.06628787520910    0.83106601568597
H         1.16630771088688   -0.96629692323538   -0.63314459486501
H        -0.53058338836157   -1.53014408553966    2.35128838989722
H        -1.39746387949839    0.01306885567965    2.12733724937385
H        -0.82150475265597   -1.21394356661905    4.40431737040770
H         1.19413686920437    2.76208431624873    3.06439998468786
H         0.76938857741374    1.73461882800604    1.61823695115893
H         3.02108157473120    2.68557631347174    1.36558937446429
H         3.80676883740262    0.70487335929124    0.12780684414425
H         2.06734613102299    1.08988983487199   -0.00766800164233
H         2.95213592913240    2.24658211328007    4.36487782615720
H         4.66069066056449    2.08578312633210    4.65340526337816
H         6.78561792885064   -0.12700366553749    2.69830729243008
H         6.44144067870871    1.15508048706488    3.83360150867406
H         8.14306284660894    1.86860971032984    2.62630580253933
H         6.86410155039043    2.75497373145393    1.62353808135319
H         7.02553196456068    1.03665311137612    0.03028500013158
H         8.26993423177159    0.35307024692874    0.90800562864878
