39
 energy: -54.523708146721 gnorm: 0.113232232037 xtb: 6.4.1 (79825abcba525fcdf90b791dcacef51065a7a4e7)
C         3.46624284521031   -1.48842972865482    0.50092672197229
C         2.40251815076047   -0.48340968205393    0.95476003912039
C         1.02466543309293   -0.87658383090735    0.40046683232647
O        -0.10245938766842   -0.27491732544596    1.02991548191723
C        -0.31741835145012   -0.73268049164365    2.34964320655585
C         0.81728371088211   -0.56197010245535    3.34221256547914
N         1.24322323325861   -1.48442699591895    4.14328816955205
O         1.26094971205645    0.66976453215210    3.60636737451310
C         1.33165977726572    1.77733401367928    2.68833235208015
C         2.65716477828175    1.85647577769356    1.91108065113842
C         2.71785831683300    0.99408178446742    0.62582066460965
C         3.91065123239620    1.67637936217571    2.80945119031807
N         3.89716950323985    2.10827896560181    4.11555610449644
N         4.99423946998768    1.41348541549977    2.16069591229016
C         6.24585381784714    1.18976224938007    2.89953562649366
C         7.37678486018806    0.89440255739148    1.90070923577520
N         7.45465194827675    1.97616918780143    0.91642806829305
H         3.30481911702399   -2.49100215813771    0.90954006057124
H         4.49420672922144   -1.31469365727679    0.83721362655415
H         3.39582262110104   -1.72806208473273   -0.55810782331966
H         2.52158174912312   -0.51033704630312    2.05038602880416
H         0.92148301282767   -1.95895449837913    0.42988285220111
H         0.94313536945756   -0.51578560637929   -0.63267789924497
H        -0.82178225438166   -1.70149456612227    2.25120452485959
H        -1.08968562426498   -0.03148006833119    2.66721640163041
H         0.79331049289453   -2.40550907422268    4.02985972171676
H         1.28439344558544    2.69426349017801    3.29342948030633
H         0.52302897041779    1.83625316449318    1.95793274531733
H         2.73474886491108    2.91211055079705    1.59456563363901
H         3.66987776352612    1.08097646746639    0.08440629108568
H         1.97607954286798    1.22475043199038   -0.15286418674836
H         3.06082453359087    1.81928949590080    4.62170709087816
H         4.73910008673879    1.80334349592972    4.58844801741168
H         6.23948723104723    0.38369943968085    3.64308001270964
H         6.50377177304058    2.13085457302909    3.40039577264904
H         7.25584556745987   -0.04750452328166    1.35409120591584
H         8.37138994526576    0.93976786032743    2.35590723361713
H         7.28076183835409    2.87758920731673    1.36762541860132
H         6.68514594786040    1.89351013858367    0.25654532695053
