39
 energy: -54.526461013058 gnorm: 0.117922430388 xtb: 6.4.1 (79825abcba525fcdf90b791dcacef51065a7a4e7)
C         3.46994641208744   -1.82333535638284    0.88825211623685
C         2.43680368786763   -0.72642858761332    1.16565403318765
C         1.04553792151137   -1.25436452392002    0.78359623805129
O         0.09020986978891   -0.21588642888862    0.97732306482212
C        -0.50028059413087   -0.20220689003686    2.26128941054563
C         0.60113930016034    0.06421348300140    3.27013976311668
N         1.11002339376414   -0.79801121773217    4.08969988478775
O         1.00231693401175    1.32789367057055    3.43124937557607
C         1.46840651532130    2.07063615356522    2.28862414409323
C         2.80706287403731    1.79132371959251    1.58340729547135
C         2.74695024021393    0.65140884672219    0.53637297754447
C         3.99275830467068    1.56236347568203    2.55933565323789
N         3.78091272410020    0.84401484373270    3.71333987923348
N         5.18301201065296    1.85237007470724    2.15516689125155
C         6.29482510078233    1.61151648508749    3.08701230029721
C         7.48348214053029    1.82452025610155    2.13537141144760
N         7.49716739255823    0.81782990944276    1.07166139026420
H         3.21068953666786   -2.71384555661887    1.46958799715466
H         4.44161909718395   -1.51610108885471    1.29005075127541
H         3.62378838186723   -2.00174527889395   -0.17402815883126
H         2.40244144607975   -0.59912515547269    2.26014505103101
H         0.65655494168323   -2.14419184967642    1.27343062862226
H         0.97036121032277   -1.35697660968571   -0.30637153897742
H        -0.97348235282926   -1.18236816711890    2.39559413711129
H        -1.22637310627871    0.60813051327681    2.19005435567384
H         0.63853501616729   -1.70035731101144    3.92492760330043
H         1.41210240458295    3.08620871598892    2.70645006350995
H         0.73049992330351    1.90103695963138    1.50276868911892
H         3.05006797820579    2.72368385437775    1.04283454417219
H         3.63770963231366    0.63486153919697   -0.10650735016490
H         1.94566007863312    0.98940176191564   -0.13704274579482
H         2.80976762439515    0.77648392834980    4.01581865436934
H         4.50758120460107    0.72118986710125    4.40783713677282
H         6.27522128833584    0.58797538146700    3.48022388613763
H         6.38298555591563    2.29730012381379    3.93846156769394
H         8.46346436542065    1.84586764907640    2.62505055664667
H         7.37235561455801    2.81515229952181    1.68282134936233
H         6.53310835728747    0.86787330791084    0.73334096934345
H         7.60947879133821   -0.05107871273180    1.58818940784146
