39
 energy: -54.525278618201 gnorm: 0.104902863198 xtb: 6.4.1 (79825abcba525fcdf90b791dcacef51065a7a4e7)
C         3.47097739637222   -0.75752457103234   -0.40610142302796
C         2.46492608688220   -0.12271816510848    0.55951847066780
C         1.08109825276611   -0.75365131727324    0.34215049893073
O         0.12116035055425   -0.41017236056362    1.33671570482704
C         0.29951885070014   -0.99173149801374    2.61241664815105
C         1.40451071631749   -0.31522991268058    3.40186151036631
N         2.26654166083327   -0.96410783610877    4.11595767074481
O         1.40069593420719    1.01573250126632    3.51282051494796
C         1.13957790555406    1.87557222324682    2.38721341328038
C         2.39598404796000    2.21094372724127    1.56482867757531
C         2.45413676487056    1.39233997234585    0.25112913978559
C         3.70958106365266    1.93187775700462    2.34413456672575
N         3.67171250608243    2.36562215614418    3.64914828895212
N         4.75523748221677    1.54998371090489    1.69227594355815
C         6.08011923651685    1.47335847676640    2.32575171339798
C         6.20666650833788    0.12245454930311    3.04889823584677
N         7.57151378886119   -0.17193809704321    3.49118390326298
H         3.26983326167564   -1.83321632538575   -0.43064203107377
H         4.48040738500474   -0.40465543107436   -0.16836771246614
H         3.20459335989140   -0.39697437714869   -1.39755487325820
H         2.92129098887215   -0.28081847206189    1.55049419474736
H         1.18899989007345   -1.83520142771886    0.38270611589905
H         0.62301288142486   -0.45950096029627   -0.61065792457214
H         0.56010123249766   -2.05473968640313    2.54324874419810
H        -0.66992957531657   -0.83489964905079    3.08623622659250
H         2.17251289499808   -1.97809342674360    3.95264362999305
H         0.85786278162064    2.79257371678022    2.92469005300332
H         0.33475278609570    1.41865051257256    1.80901112507821
H         2.38454823591678    3.28141841011640    1.29184705406786
H         3.42259045975622    1.58584608369045   -0.23019617664189
H         1.62702339669244    1.42608681223037   -0.47312115283383
H         2.75848810406103    2.36967861330836    4.10211779164155
H         4.43038848381707    2.07404283050242    4.25317788556963
H         6.15244654198657    2.37155901055195    2.95076419735484
H         6.85958041438568    1.57407923532603    1.56068118424956
H         5.88303319950606   -0.54567044442696    2.24299687179303
H         5.55276885847511    0.06082614784827    3.92475342131604
H         8.18422231279383   -0.27603757449033    2.67870225165320
H         7.55024121437300   -1.15118158275846    3.76513081264813
