39
 energy: -54.521899539854 gnorm: 0.110326545965 xtb: 6.4.1 (79825abcba525fcdf90b791dcacef51065a7a4e7)
C         3.56655910999319   -1.92919889249949    0.83253049889009
C         2.52516144758651   -0.90443622656749    1.29393331354204
C         1.09957002638198   -1.26165822619027    0.84628783578682
O         0.13330865220852   -0.21941715467949    0.75306225340464
C        -0.61646753660189    0.10140209654392    1.90733533466329
C         0.13104103495725    0.06861988851909    3.22719929221685
N        -0.24732283732048   -0.58961949507766    4.27488003138606
O         1.14115946780429    0.90739810021651    3.47194255956408
C         1.56434560171827    1.93889525226733    2.56011722499182
C         2.89647800357170    1.55533062550446    1.89254811549572
C         2.90167937899714    0.49736199334749    0.76118804385176
C         4.11586332694273    1.38549442976327    2.83858600594797
N         3.91270922693232    1.21654335707108    4.18870191832696
N         5.20038996558705    1.55486713161030    2.16088774116820
C         6.52259270015898    1.27999121088781    2.74286523102181
C         7.68486809775922    1.89471410736167    1.94591593351531
N         7.64840202149620    1.53522831469204    0.52657385703741
H         3.25706460079247   -2.96156232407392    1.02387532643946
H         4.56462046904495   -1.67553402363006    1.20604154597842
H         3.69269415573357   -1.89737879534941   -0.24775384645099
H         2.63294681836093   -0.83065832483285    2.38857327494833
H         0.76016625584235   -1.99028973104471    1.57904930358545
H         1.05193528883428   -1.86796213515961   -0.06713267319713
H        -1.47313339667816   -0.56697803832373    2.05587955046168
H        -0.96166851300848    1.12341820297462    1.74843022333852
H        -0.93275780127578   -1.34182359491243    4.10740596259063
H         1.81339903237940    2.81568873381052    3.17521223449050
H         0.81385821231255    2.13148320302165    1.79166594814356
H         3.14009203476333    2.52064250387131    1.41360032683127
H         3.91644386073860    0.32936458155659    0.37511662145799
H         2.27552495710786    0.68889615456052   -0.12257615356983
H         2.99583739038629    0.80457298818252    4.35841663644389
H         4.68377845546675    1.24724384571833    4.84442229453470
H         6.65353336436182    0.19555231527472    2.84024524829611
H         6.53492819423416    1.67559436183319    3.76579401482170
H         8.65042118428006    1.67694924561910    2.41590767061660
H         7.52196560873668    2.97211759082639    2.05159004237309
H         6.86393017043094    2.00086808726932    0.06380135613404
H         7.35522888196937    0.56260506168377    0.47686718228353
