39
 energy: -54.529990488421 gnorm: 0.107526329321 xtb: 6.4.1 (79825abcba525fcdf90b791dcacef51065a7a4e7)
C         3.50998784333776   -1.42239706917130    0.11993006000229
C         2.53600761456482   -0.53094101288573    0.89723879356052
C         1.14860034917985   -1.12470393894447    0.60939906861374
O         0.00950833511068   -0.43943488126993    1.12076416752529
C        -0.30551471514767   -0.79540089689441    2.45173539252717
C         0.69522612577294   -0.33770967831180    3.49620714080291
N         1.23049066356960   -1.03878557403556    4.44281041971486
O         1.15498558800636    0.91173593119272    3.60248229068268
C         1.28160737932796    1.89278853211192    2.55558154531767
C         2.64247096206636    1.88639470832721    1.83769799109776
C         2.73237411306393    0.97178018257734    0.59082258557357
C         3.85018321395663    1.69533437694882    2.79459926501118
N         3.67222335788846    2.16682917377608    4.07469779828433
N         4.97924714463474    1.29507469748384    2.31588517764332
C         6.30209708880896    1.12370607136197    2.93489698407618
C         7.36837789219668    0.79651889045559    1.87664824304379
N         7.55615825144597    1.77377620915318    0.80203275846343
H         3.22530558506493   -2.47814512961033    0.17018951973329
H         4.52787714823772   -1.33530613764758    0.51527724554581
H         3.48660859260888   -1.14025187742277   -0.93068135985309
H         2.64354675157548   -0.67746964892832    1.98455763264837
H         1.07882564066429   -2.15565382721184    0.94897528511467
H         0.98787081853215   -1.16432302513737   -0.47540824374717
H        -0.57468959701375   -1.85374748066171    2.55233961020540
H        -1.22288213816409   -0.23093897840327    2.62129733756065
H         0.97249319781801   -2.03572402439788    4.38597108704460
H         1.13498199421047    2.85546006944762    3.06636610778014
H         0.40419122409378    1.83523819025099    1.90930935226527
H         2.67916837011276    2.93174034932780    1.48206937508541
H         3.67555137307647    1.13359652605154    0.05114357097681
H         1.90393144901128    1.19407517774667   -0.09769874969402
H         2.69905710339508    2.25684872401142    4.36456090703749
H         4.27999377576247    1.92216295697502    4.84684618442580
H         6.36340024509880    0.19683765062324    3.51781459663619
H         6.63950166744068    1.95576926813924    3.56487027996566
H         7.09395274684215   -0.15713019647595    1.41205077212585
H         8.35115229179354    0.55450682658031    2.29388578272922
H         7.86841690073362    2.68866840952009    1.13646014001138
H         6.68960413583818    1.91361903693853    0.28827679632096
