39
 energy: -54.518114449779 gnorm: 0.112176675255 xtb: 6.4.1 (79825abcba525fcdf90b791dcacef51065a7a4e7)
C         3.65730855185554   -1.15818247615207    0.09207158032210
C         2.61698154861637   -0.36248800242573    0.88713774851795
C         1.25422805506737   -1.00854249988199    0.59418475663851
O         0.18780591977454   -0.15864869584567    1.00533298969758
C        -0.42322001587661   -0.40260130540187    2.25616075981029
C         0.56104175924207   -0.38767457879470    3.41066955680351
N         0.66514522947393   -1.20488013273221    4.40837231223239
O         1.53957757493675    0.52120223096867    3.39659795129483
C         1.50724061492201    1.79603253316256    2.72707547558340
C         2.65097202979506    2.04837096270795    1.72930252303089
C         2.57211153048150    1.12969946528270    0.48466441242940
C         4.04065705718284    1.81800821439313    2.38232711585349
N         4.18504889289671    0.91073243451349    3.40635381572249
N         5.00005823462603    2.53692386830558    1.90601868473125
C         6.44757062750176    2.32715525180145    2.05826721131970
C         6.84165779908381    0.84170511709838    2.01321497791525
N         6.90096600497349    0.23408746786663    3.34452075156664
H         3.72309692096472   -2.24787839569615    0.17212557752792
H         4.67337556977537   -0.81677754699286    0.31797717187169
H         3.45127136647753   -1.14419129191509   -0.97624006106449
H         2.88775602604397   -0.42311324930395    1.95405071564121
H         1.15957554760868   -1.98658119133463    1.06057448971977
H         1.11385200716770   -1.27323029332581   -0.46148823663221
H        -1.09068488361409   -1.27256519761281    2.27425107537910
H        -1.04928038192657    0.44899218641439    2.52405704435894
H        -0.12031199956324   -1.87176850756937    4.45305452388298
H         1.59896794531630    2.43431191898811    3.61776162094594
H         0.58950503905490    1.77814031197270    2.13692286699786
H         2.59239851838799    3.12412462766466    1.48458026174796
H         3.45477966272221    1.22300591850668   -0.16280150101823
H         1.63775490437408    1.39414986614492   -0.03189879825419
H         3.34206852467137    0.49201289410133    3.79780581617648
H         5.07940934991225    0.73478846404368    3.84751430437193
H         6.85240370727757    2.76164294132255    2.98020357318948
H         6.92684814246228    2.97219598706491    1.31177352625647
H         7.71438883743651    0.66359469317205    1.37507413460588
H         5.98660000138438    0.38893880286285    1.50098326406548
H         7.61882057089294    0.60242688690737    3.97331782784502
H         7.02379267304669   -0.77543297460978    3.33040271472280
