39
 energy: -54.516909363136 gnorm: 0.105717336920 xtb: 6.4.1 (79825abcba525fcdf90b791dcacef51065a7a4e7)
C         3.76533446118269   -1.30010888452056    0.61497181163169
C         2.53973490135588   -0.49763480386902    1.06383843186561
C         1.22399769675366   -1.11979234624895    0.57184194962320
O         0.01201051355519   -0.55112490067305    1.05797248489172
C        -0.25763644537187   -0.60558784483406    2.44424804489080
C         0.67699753733293   -0.13365545086623    3.54225699467821
N         0.86005978731933   -0.80789307005768    4.63127721275750
O         1.20302080973563    1.09397841890590    3.54365187921676
C         1.36652511415964    2.09096115610752    2.51710910697005
C         2.72603880710300    1.88539267996753    1.82659391983908
C         2.59993608918518    0.97061863371524    0.58297545613836
C         3.88377976650130    1.37693553336780    2.72761546138281
N         3.90392297776617    1.49466076181068    4.09814969045663
N         4.89228564111179    1.04032626312718    1.99701967260056
C         6.17700821690492    0.79187734492560    2.66801572418773
C         7.28532937616710    0.84763605079215    1.60386737337398
N         7.26763324176393    2.09603055728601    0.83817177531808
H         3.81931953040687   -2.27962476307541    1.10057268217597
H         4.62459159224463   -0.62700448406597    0.70765673981707
H         3.64425882024289   -1.49062763028354   -0.44944358400582
H         2.58434524738392   -0.52388636628981    2.16502791879649
H         1.16009846236728   -2.19340817392484    0.73402732457572
H         1.26325887971292   -0.91564895481716   -0.50565262754390
H        -0.56208774325338   -1.63864116609522    2.65109098931587
H        -1.15824789480015   -0.01437562396488    2.61246987013097
H         0.47480125152091   -1.76300865074195    4.68613828591329
H         1.43504957075856    3.04013703294056    3.06802274872726
H         0.57184491893179    1.95502429733334    1.78168857186871
H         3.13141032589937    2.87329278505271    1.54323351509519
H         3.49506556139687    1.02647876029973   -0.05156698664790
H         1.79716697624248    1.39905317358199   -0.03492377691665
H         3.03604193089037    1.40511077528113    4.62534976774183
H         4.64000135953805    1.04536435763745    4.62898003336210
H         6.01250860801833   -0.13688607365901    3.22745691058729
H         6.53309077159544    1.62863694093056    3.28126600998661
H         7.34595991037699    0.04359646891405    0.86194364191567
H         8.23601930089102    0.82265158763591    2.14614677618235
H         7.21875841128556    2.93678423768536    1.41879159153591
H         6.52559678235913    2.18921457772971    0.14888528416476
