39
 energy: -54.530137747927 gnorm: 0.097612032774 xtb: 6.4.1 (79825abcba525fcdf90b791dcacef51065a7a4e7)
C         3.56947142780749   -1.59411884272696    0.20810289777364
C         2.64954573613049   -0.68181948331719    1.02601901770670
C         1.20721829949953   -1.05887598816272    0.65477124139373
O         0.26760912286686   -0.07674314331903    1.08040981239645
C        -0.42366200328981   -0.47427330953050    2.24726442437010
C         0.43233161763562   -0.40246355237005    3.49786543987516
N         0.46626399453328   -1.29497044129189    4.43400287037983
O         1.23251955758291    0.65294561130854    3.66990661219826
C         1.36743895892576    1.75242752773193    2.74934450815589
C         2.69226588936129    1.76748270224415    1.96706960890636
C         2.87881797041209    0.82281792967173    0.75376539818874
C         4.00445169497296    1.61265760108402    2.78250214551355
N         3.87944927073213    1.56446474159944    4.15169201897755
N         5.10221607286868    1.62225959915144    2.10502057907322
C         6.38177969183610    1.43253770480705    2.80444692155496
C         7.45914658450839    1.11812653671971    1.75357931137270
N         7.28211829044286    2.01087931297095    0.60608412135942
H         3.18732467309186   -2.61894324875918    0.25137814564343
H         4.61336357335337   -1.57595225167123    0.53967793999071
H         3.56466843903119   -1.26240701728037   -0.82817941633432
H         2.76294850915879   -0.82398777760861    2.11332095565419
H         1.08816714054531   -2.04306279898215    1.10225454581412
H         1.05639686007659   -1.03537084834046   -0.43192601966653
H        -0.91157424919232   -1.45464936166499    2.18828794071496
H        -1.27396743974868    0.20431781875649    2.32092729587403
H        -0.17377141262804   -2.08399228797884    4.25658002454873
H         1.22829205226338    2.68928109130071    3.30798555250858
H         0.42421361298438    1.71224786646571    2.20203258084193
H         2.88001963329640    2.75428185160410    1.50713289754844
H         3.96564902224427    0.90976448845247    0.61863654727885
H         2.29979969383864    1.21534290941969   -0.09503130381645
H         2.93028526916931    1.35295262500912    4.45751380215891
H         4.70521429428934    1.30226434890166    4.67592725387071
H         6.23339937976157    0.59529104078882    3.49700548029165
H         6.70381535235799    2.32621801026393    3.35277698996511
H         7.30365858848674    0.12203723909368    1.32435194710909
H         8.44937455184357    1.26801647963783    2.19571513260039
H         7.32361152234429    2.97183578556539    0.95424477591788
H         6.31052734308281    1.88140493494280    0.33467179104947
