39
 energy: -54.526376052316 gnorm: 0.099745894869 xtb: 6.4.1 (79825abcba525fcdf90b791dcacef51065a7a4e7)
C         3.52909387924270   -1.60184106367288    0.28986607524656
C         2.51940305351590   -0.66590711356662    0.96224413794005
C         1.08456880629011   -1.16337876074663    0.72969822080975
O         0.06964532996210   -0.28412700214311    1.20452998726436
C        -0.40020220990004   -0.46780466305950    2.52473508527668
C         0.73819467006844   -0.27339081597179    3.50867636318855
N         1.09516463760973   -1.07985053562131    4.45539090318854
O         1.42985223324729    0.86855739346280    3.54543951703647
C         1.42666519374957    1.87251836458072    2.51270017256455
C         2.72482910362390    1.78170397409949    1.69180412146507
C         2.52842872045455    0.81001924370358    0.50161253920748
C         4.04044584239792    1.58048952841583    2.49142775921700
N         4.08323123663800    0.63957377468552    3.49416202889571
N         4.99947042914103    2.38687370809496    2.18454586109283
C         6.26045323067845    2.30444960460752    2.93661188299261
C         7.13700903586603    1.17111153600323    2.37885631176497
N         7.26910562638812    1.24172986140201    0.92192278973452
H         3.20408828849329   -2.61477225099869    0.54777250998415
H         4.57082994922979   -1.41769384439559    0.57422255820392
H         3.50978562317827   -1.44573701192455   -0.78679336700163
H         2.71623804587586   -0.74856258038293    2.04378081260940
H         0.98647119353091   -2.17250942373733    1.12348792027050
H         0.95495390712089   -1.30189315827211   -0.35114602140607
H        -0.67455639703426   -1.52953085347517    2.53661252824609
H        -1.24386045276935    0.20972555908259    2.65936436833861
H         0.26752346060835   -1.64600545783927    4.69655133686381
H         1.30563673329413    2.81828019772766    3.06044368321908
H         0.57630608850756    1.73178379663477    1.84343042475634
H         2.90949229530339    2.75989105586462    1.21262215837268
H         3.34773653573642    0.95718955815446   -0.21539292495207
H         1.57941111735856    1.11364467259437    0.03581101292848
H         3.23584805851377    0.42615091528918    4.01910875763861
H         4.98301716648492    0.37333740710527    3.87490206351494
H         5.99548777679579    2.03969952981777    3.96730910158156
H         6.67739498437672    3.31884642142457    2.95061161945497
H         6.63994665805939    0.24848536129714    2.69869450557181
H         8.13700157660523    1.09878151076610    2.81849911041448
H         7.93888302329730    1.99108438512993    0.73155234078142
H         6.43730898010555    1.50181357422415    0.39762512898908
