39
 energy: -54.503182457632 gnorm: 0.125422884271 xtb: 6.4.1 (79825abcba525fcdf90b791dcacef51065a7a4e7)
C         2.01972499344627    0.10581865864684   -1.38638478986372
C         2.81042541424742    0.47058440951209   -0.12571871483398
C         2.57046699037852   -0.58414775982446    0.96527391954178
O         1.20577479247061   -0.84426881182289    1.27923371016858
C         1.00339501219254   -1.47803919426687    2.52615520278229
C         1.17515280008770   -0.58566600275549    3.74108481657623
N         0.95546477219275   -1.01731654254196    4.94087155877663
O         1.68915684376814    0.64314660675349    3.64307040199988
C         1.23804464877563    1.45883866862018    2.54505284049044
C         2.41473501269815    2.13409056495013    1.81925554379429
C         2.59278259400154    1.94312895466382    0.29245070932606
C         3.77778670971089    1.99957120437123    2.55050596389094
N         3.99297152718603    2.39608744852415    3.85015952938350
N         4.71760148055796    1.57554684294964    1.77519208116225
C         6.09064505542903    1.46173130082358    2.28926602151690
C         6.15663809446630    0.23375825428495    3.21210059290017
N         6.31575656122529   -1.12121657885613    2.67935651162247
H         2.27307206133605   -0.89494450813242   -1.75033848804597
H         2.30033048896449    0.86548819261287   -2.12404704326368
H         0.94415704577841    0.17464063245707   -1.23687238809700
H         3.89300442734646    0.45309631652032   -0.33311774021106
H         3.10391047460578   -0.36338561571526    1.88708750058334
H         3.02706945255794   -1.49623837606739    0.56053273411800
H         1.63893930451167   -2.36970866932928    2.46546925543587
H        -0.03298008476622   -1.81036929196482    2.45971094669737
H         0.65073878850825   -1.99997285467700    5.01304018091050
H         0.62424817976836    2.19909682413100    3.07835204092829
H         0.57433695939392    0.86595044027059    1.91353526674993
H         2.26798021337598    3.22447244553697    1.71877580183358
H         3.44246582112954    2.56570233612931   -0.01973836557630
H         1.67743322593271    2.35554148146467   -0.15682125617194
H         3.22358913201204    2.11497131103122    4.45695528183758
H         4.88199212625278    2.23898631221818    4.30887632243543
H         6.28197121052063    2.42589701539629    2.77549109813403
H         6.55925515921374    1.38798757345744    1.30032529663088
H         5.20200490202355    0.15655861293624    3.74438079905358
H         6.96184110783774    0.42019055693928    3.93000978519905
H         7.32280566630601   -1.30073378533090    2.68009381009481
H         6.00240289620289   -1.05352347101416    1.71413925145055
