39
 energy: -54.520854275353 gnorm: 0.118780264765 xtb: 6.4.1 (79825abcba525fcdf90b791dcacef51065a7a4e7)
C         3.36191162395242   -2.00814550122269    1.15863021543464
C         2.39057484517612   -0.82325676029189    1.16777791081129
C         1.00362210418720   -1.09946984053299    0.56746686481403
O         0.02040537956218   -0.12181557513654    0.89318992359877
C        -0.45373069877280   -0.18566159020188    2.22305996447591
C         0.49888833762154    0.11055544904904    3.36615095563244
N         0.62381971171381   -0.59900729463036    4.44085374261343
O         1.14725314977084    1.27800527457484    3.38786167602266
C         1.56203420279983    1.97467391139707    2.19743831544617
C         2.95505100513970    1.73198703696543    1.59084592359867
C         2.89774168339971    0.52929199317887    0.61640220616058
C         4.04572536904408    1.46279685187328    2.66261952183735
N         3.92461963563640    0.47491084928212    3.61237932050234
N         5.19364653865869    1.93267334906746    2.30814364652410
C         6.43063108199558    1.57962477852059    3.02067476372938
C         7.55561356343838    1.96559328161174    2.04633433794047
N         7.34666232650811    1.28939589217897    0.76407530926600
H         2.85238717587315   -2.97247824942865    1.25148025752296
H         4.03683690419244   -1.97180983933264    2.02068498469738
H         3.96260378354552   -1.86523162899007    0.26270533654630
H         2.17228663193010   -0.63965951959267    2.23264401399182
H         0.76653646814209   -2.13953265942212    0.77982949197895
H         1.08480766838404   -1.12345126975092   -0.52662834162807
H        -0.85093786901139   -1.16603481188428    2.51248800890130
H        -1.31799488672584    0.47355229148273    2.30917576673904
H         0.04349649183008   -1.44175777004475    4.56999030012589
H         1.70331355319407    3.02832130878356    2.47851409487914
H         0.75773259067387    1.96414421437012    1.45999215858438
H         3.28854891924473    2.63636173143498    1.05098359505135
H         3.87185706505753    0.34559836855472    0.14271761572260
H         2.18552115452418    0.94877728035276   -0.10924776162439
H         2.99257880906064    0.21100205942054    3.92991463375774
H         4.58737306468749    0.32075448625540    4.36234811378521
H         6.48604658916236    0.52790881482758    3.32638491398586
H         6.44758549181579    2.23687905988289    3.89860794826183
H         8.55475077642405    1.81481476805055    2.47012344057539
H         7.45656001824992    3.04264278496168    1.87705566572600
H         6.38387014244532    1.53180009978903    0.51781065011383
H         7.19158357843398    0.30908198863635    0.98622946467015
