39
 energy: -54.522853473406 gnorm: 0.115736556609 xtb: 6.4.1 (79825abcba525fcdf90b791dcacef51065a7a4e7)
C         3.37126618459385   -2.02883786945604    0.60893991525795
C         2.45356936506191   -0.93467389335138    1.16407765836973
C         1.01630878693511   -1.25675695679969    0.72721442814030
O         0.15261683000025   -0.14672985863556    0.95192439477891
C        -0.50331121047231   -0.18303631150544    2.20327404241602
C         0.46882405057665    0.08896402503891    3.33590526359732
N         0.67517337398398   -0.61999496284471    4.39838837482811
O         0.95758277692956    1.32230415888916    3.49009488821856
C         1.44933034350291    2.07594745918516    2.36550411315448
C         2.75685835883818    1.63627744509910    1.68402937351953
C         2.74551307182691    0.49085855137862    0.64134671089383
C         3.99899749803872    1.46256168093257    2.59925928069988
N         3.80018326984497    1.30993424009663    3.95196280206438
N         5.17069254587981    1.48228789749222    2.05990626064664
C         6.34002418685335    1.30458374093818    2.93372512231250
C         7.57288547650437    1.90727942540217    2.24039440112373
N         7.79743543470630    1.54530501239024    0.83909372477313
H         3.10289050900752   -2.96680729304866    1.10528839108497
H         4.42350324870737   -1.85469713520504    0.85884992115733
H         3.39634162441190   -2.20620654044209   -0.46430209388720
H         2.66653565863110   -1.01387691187220    2.24281291357313
H         0.57791253527887   -2.13440259485289    1.19687922661382
H         1.03174631794609   -1.51345022758590   -0.33959426220606
H        -0.97570759709479   -1.15979430426745    2.36283366073818
H        -1.30588444971046    0.54473139916013    2.08014065389647
H         0.33623498710792   -1.59012557213979    4.31094103640231
H         1.64971858452992    3.09266792215916    2.73328167860147
H         0.62921343888049    2.26986953064448    1.67222113160297
H         3.11472297051323    2.53206310444730    1.14545089709917
H         3.74752672669511    0.53381367599711    0.19285510012864
H         1.97545900118895    0.70004368236356   -0.11565538568767
H         2.87504643461016    1.17976581308804    4.35982876986304
H         4.46204784828397    0.81814215546896    4.53978532551841
H         6.34285889970519    0.20845942271256    2.96748153253109
H         6.36463692025446    1.71570029501683    3.95029519302582
H         8.38625652489677    1.51668080111783    2.86205893224201
H         7.53229478682689    2.99417931028919    2.36490762245790
H         6.87402128597964    1.56342031650056    0.39937447641596
H         8.17256490600840    0.62075315755967    0.64186547389728
