39
 energy: -54.520597768600 gnorm: 0.103641691394 xtb: 6.4.1 (79825abcba525fcdf90b791dcacef51065a7a4e7)
C         3.38311706306577   -1.75126125852455    0.14470014356598
C         2.41203605705895   -0.87513785754151    0.94279138956846
C         0.97678033900221   -1.25773437106393    0.55040655605684
O        -0.13808064260402   -0.55785663588856    1.09435016029114
C        -0.39485645890970   -0.60895919406615    2.48319513489548
C         0.58770133306958   -0.17546377553604    3.55489774836852
N         0.74017886552696   -0.81362164315686    4.67005619895981
O         1.25965856663846    0.97876887642129    3.55209451820315
C         1.35749581313236    1.79148382744395    2.36701198516583
C         2.76208547189599    1.69747206424376    1.74601538585782
C         2.75457153765982    0.60374508079719    0.64919947324623
C         3.99943390539575    1.49438330915074    2.66168803761317
N         3.85830856660244    1.69722309383477    4.01504264958268
N         5.10204414395483    1.17245279677787    2.07451558745769
C         6.40640892756104    1.11952492914189    2.75149844641274
C         7.59466953822344    1.38115838839442    1.81156165118695
N         7.73935149471784    2.76325658636341    1.34899982386499
H         3.30600014518120   -2.82849540561727    0.32300752501682
H         4.44269717573755   -1.50894508761734    0.28091946229485
H         3.13076705348369   -1.60881206434262   -0.90409179818756
H         2.51317153011561   -1.09756079226730    2.01777844110025
H         0.82252204317973   -2.33323434036818    0.49998488959152
H         0.75938929424354   -1.03894127545399   -0.50272270740420
H        -0.66022744939241   -1.61096028922075    2.84130939658578
H        -1.27827354866035    0.01985527646374    2.59764195463459
H         0.30075295517104   -1.74565223854345    4.71368530228457
H         1.17081254163032    2.79889595284482    2.76626936417399
H         0.59952822680047    1.41969223296624    1.67556787037361
H         2.82145284675619    2.67178525591487    1.22856479499273
H         3.76201296654600    0.70245467667070    0.22218727156839
H         2.05687348300670    1.03708440890564   -0.08239353075345
H         2.97538327274961    1.98029515101455    4.43870497379522
H         4.45707141110290    1.19081374598470    4.65573924183410
H         6.62541763819991    0.10029284510319    3.09184707219565
H         6.37277987740487    1.94894401563469    3.46841572465513
H         7.44560332602126    0.79001982458054    0.90109968259870
H         8.50839912605686    1.22515509683029    2.39402514108830
H         7.87724006894274    3.34108347978695    2.18175290463334
H         6.82968076321493    2.99256269182916    0.95614475381385
