39
 energy: -54.529226140718 gnorm: 0.102585572758 xtb: 6.4.1 (79825abcba525fcdf90b791dcacef51065a7a4e7)
C         3.53813487958584   -1.75412940094002    0.45695431952854
C         2.58642885084507   -0.75529530869099    1.12338231844094
C         1.13570012106171   -1.16339453338593    0.82480882203236
O         0.10658109478820   -0.18547069609146    0.93968927664486
C        -0.56396797877781   -0.12315888789738    2.18223378935524
C         0.34120835171561    0.03454800426623    3.38957341602991
N         0.38860505874646   -0.81819502738693    4.36150763350870
O         1.11766313102618    1.11640192186079    3.49203069256490
C         1.43552614363977    1.97305175935292    2.37865182879246
C         2.81716540741867    1.68419481383406    1.76629432729729
C         2.86563251527345    0.67096188207284    0.59569179406462
C         3.98024641435535    1.38261047467519    2.74966713154736
N         3.78198340465154    1.03390892586404    4.06561852365545
N         5.10774266284210    1.67504692760918    2.19523658524124
C         6.39057464171937    1.60094949895144    2.91030744618004
C         7.48690003042106    1.94162518478837    1.88761137476882
N         7.75406731485096    0.77481691065991    1.04364938534357
H         3.58536945474968   -2.72390978728626    0.96239358359392
H         4.52983780325623   -1.28887111064341    0.46350295707613
H         3.18497249149609   -1.91864076614856   -0.55899310948254
H         2.76510928024000   -0.81633347495059    2.20949702943342
H         0.90054268029999   -2.00332713688395    1.47461830487214
H         1.06403532370035   -1.49953758300157   -0.21734401880761
H        -1.19880000766962   -0.98702935278890    2.41329634701970
H        -1.13539171125033    0.79108794756329    2.01926409871902
H        -0.27190203278337   -1.58773795849087    4.17385442712925
H         1.58045928399136    2.88553727642005    2.97489075746420
H         0.61964534358343    1.93727391646546    1.65484434241324
H         3.05924824195367    2.58580007345454    1.17547314207303
H         3.77401945954904    0.67886621986303   -0.02220132722740
H         2.05892212199907    1.01280368424974   -0.06925662311356
H         2.81670497395434    0.91397177882719    4.37062551689298
H         4.62595533262907    1.02485969770998    4.62516208414282
H         6.64139445193906    0.64585821706061    3.38730441579022
H         6.38005469798565    2.38214449216109    3.68015225676536
H         8.43244244019908    2.30733314190525    2.30332013797447
H         7.05977080189026    2.74724653469761    1.28177528357622
H         6.97454032660769    0.65171751283916    0.39283521487017
H         7.88556827740960   -0.01492540551657    1.67089081188262
