39
 energy: -54.527466900818 gnorm: 0.106189924395 xtb: 6.4.1 (79825abcba525fcdf90b791dcacef51065a7a4e7)
C         3.05271835056724   -2.23629460840150    0.81968292185379
C         2.24292647295700   -1.00452510638734    1.23744024078458
C         0.83416835774923   -1.04433336207459    0.62578607393710
O         0.11185668571856    0.16426580633437    0.84066375845430
C        -0.67682632275996    0.17135781901870    2.01342311398081
C         0.15170964577014   -0.10977135664022    3.25293074314687
N        -0.25591100221899   -0.99696204799581    4.10193682722022
O         1.20735038693229    0.64799150796289    3.56148458653178
C         1.69005346790980    1.70965892210904    2.71628736343914
C         2.96099591996256    1.43653880397042    1.89320914926475
C         2.98591712263284    0.29413012824441    0.84746460887535
C         4.26366155062935    1.34451122410567    2.73304589802928
N         4.32785188271469    0.48888382894767    3.80841113610105
N         5.24397800799717    2.07165266042387    2.31542759810015
C         6.56744511390280    2.18998762007680    2.94543259003269
C         7.60105705904714    2.51931167329739    1.85589666172401
N         7.92406075876180    1.46331700008561    0.89379708285744
H         2.79732185720961   -3.24452601328924    1.16088082671504
H         4.10400707950914   -2.14692801696707    1.11428174480955
H         3.12553849176510   -2.28727565465902   -0.26476855018108
H         2.12252837782538   -0.96685968856285    2.33260375712830
H         0.22486529762278   -1.82997767432953    1.06686538274941
H         0.92100226634636   -1.19036194749601   -0.45834770820033
H        -1.49182762903203   -0.54828341894506    1.87002453910522
H        -1.22297228411616    1.10899907132929    2.12059095527883
H        -1.09704519403696   -1.39545127093363    3.65766294970738
H         1.91270296194135    2.50884089554189    3.43800175109148
H         0.90230366367428    2.09520746508100    2.06694818522114
H         3.23340505602022    2.33494647767689    1.31078085354222
H         4.03418768375536    0.18372057899551    0.53769084114307
H         2.46087122493890    0.66026995590541   -0.04699740670046
H         3.54952762436841   -0.16937253380882    3.79910816733874
H         5.18115423403148    0.08233334698489    4.17179975674281
H         6.88177282769971    1.28560543729761    3.48015400795210
H         6.42847907486943    3.00525861441644    3.66589005713908
H         8.52897822153605    2.75824724537329    2.38738385945851
H         7.27241779085959    3.39472964516096    1.28656186686449
H         7.12635878037895    1.31466854162607    0.27094071120725
H         8.25028200590195    0.64464079395772    1.40150389027364
