39
 energy: -54.531130231697 gnorm: 0.105194197841 xtb: 6.4.1 (79825abcba525fcdf90b791dcacef51065a7a4e7)
C         3.66020387158701   -1.10268802694960   -0.00662037286478
C         2.53493718205434   -0.49623227070383    0.83808458392629
C         1.17324813804780   -1.05621357904775    0.39930351993227
O         0.10376850694503   -0.29277943014588    0.94884890944342
C        -0.28678822129018   -0.59909424328476    2.27212981649765
C         0.78158459598363   -0.42930261395951    3.33591313309996
N         1.21027507897877   -1.40293349750752    4.07235092436196
O         1.26111363758523    0.73780589711613    3.77374533061887
C         1.35982528955841    1.93145952465906    2.97377949028982
C         2.59036122152634    1.89092212452792    2.05101998216001
C         2.52730599076754    1.04758535761035    0.75328833782209
C         3.94829872309445    1.63626716779226    2.75946135671900
N         3.92946197137897    1.17688207503335    4.05608757691891
N         4.98010764546612    2.12969502297039    2.16275425098124
C         6.37505045140426    2.22014234393239    2.61929392912163
C         7.02517235340695    0.83595051502413    2.46038823269250
N         7.06189396745725    0.50472631267020    1.03419266596232
H         3.69451561733812   -2.17666275950305    0.20212571361665
H         4.64401578583234   -0.79430553246950    0.36351095635003
H         3.42778884131967   -0.84680352213562   -1.03833894446993
H         2.77205591786946   -0.79532946187504    1.87230558790926
H         1.19627852574206   -2.11788893796413    0.63457611173280
H         1.15336236691761   -0.99114335122062   -0.69595031084793
H        -0.60946708700025   -1.63654490096090    2.42128837428396
H        -1.12113316284961    0.06484984172633    2.50011719547049
H         0.81227914997691   -2.31047955096377    3.78662541484770
H         1.47619173834416    2.75008448805439    3.69865761994202
H         0.46074929317681    2.11746932210013    2.38394772233006
H         2.67747800927974    2.94070497472609    1.71795477967191
H         3.40034163166976    1.35044099573052    0.15905903778557
H         1.70587798167992    1.35011202875609    0.08730973730219
H         3.02324510349419    0.90584872044973    4.43620405884254
H         4.73722134537341    1.30399388685991    4.65343745205124
H         6.40596951676829    2.57069412702849    3.65794377265973
H         6.84527205772746    2.96340537544802    1.96393981064367
H         6.32036500572367    0.13489788378305    2.92123348349247
H         8.02444667866481    0.86977962075171    2.90626817019816
H         7.91680033181787    0.75194879985122    0.52982075894206
H         6.25729248237748    1.00178434120161    0.66007102453653
