39
 energy: -54.512470939955 gnorm: 0.113337093152 xtb: 6.4.1 (79825abcba525fcdf90b791dcacef51065a7a4e7)
C         2.08249959366938    0.10195021666460   -1.45522033903209
C         2.80955594140886    0.44902474452356   -0.15196728780394
C         2.68262750031727   -0.67660809017905    0.88588859566462
O         1.32406838682114   -0.88812982264802    1.25763341197644
C         1.00646918248181   -1.46073687948083    2.51010600206800
C         1.20654719954479   -0.55192578869188    3.70840304866601
N         1.08294204516026   -0.95475867814747    4.93172666878826
O         1.60801574516191    0.71884471850218    3.62035339924769
C         1.22387520415764    1.68479865922157    2.62342443465029
C         2.44687325017842    2.17780044836980    1.83059904227634
C         2.34432244848354    1.84556665214761    0.32116062278749
C         3.83480702201961    2.00931755768307    2.50586635721305
N         3.79545923772050    2.23268291173018    3.86277045213875
N         4.85102517155205    1.73649808039254    1.75952174946126
C         6.16795717730385    1.40100760242802    2.32131429583625
C         6.23151343427087    0.23275612376689    3.31883401777125
N         6.30069610888899   -1.12238413786492    2.76756242957059
H         2.64774818891010   -0.67500656508261   -1.97963061416207
H         2.04679018545066    1.03204506207320   -2.03282856701238
H         1.04547070902079   -0.16099327283615   -1.25680498967865
H         3.88408938931788    0.63178575982304   -0.31711509643257
H         3.32405129496549   -0.42486999087903    1.72745951122358
H         3.05997140825959   -1.60345662882232    0.43558437323698
H         1.56653398335599   -2.40006822184643    2.59170157113700
H        -0.03046975148150   -1.77609922603764    2.39079249430360
H         0.81801299953571   -1.95065578092282    4.97272944409915
H         0.70260505585128    2.41806855498858    3.25566566494198
H         0.45846008226771    1.15231215409480    2.05647062526592
H         2.30166146410446    3.26631716480598    1.70972429652864
H         2.91639997386093    2.64018373102376   -0.17716882230023
H         1.26481913975142    1.97286880637588    0.15305160807964
H         2.91016608921855    1.93563437001464    4.27166511330317
H         4.63135615004451    2.38754181429501    4.41300182741965
H         6.68656772408837    2.33220152306466    2.57930077018080
H         6.59011499685553    1.01812365164477    1.38418037965681
H         5.29414160113680    0.13414494536454    3.87759730488050
H         7.10847036625465    0.23960410730684    3.97412185032121
H         7.15272828901506   -1.21025554859886    2.20837136290102
H         5.56079053590205   -1.29343445651267    2.09102805090028
