39
 energy: -54.527537033354 gnorm: 0.109112472490 xtb: 6.4.1 (79825abcba525fcdf90b791dcacef51065a7a4e7)
C         3.81822772233305   -1.00338817719741    0.14816598291730
C         2.73510232454293   -0.31351950403045    0.98390564002357
C         1.43983201493216   -1.07484856961382    0.66303520063065
O         0.29450698789867   -0.38217555131989    1.14991629155641
C        -0.11348363524647   -0.85289029022230    2.41854033822681
C         0.77668043181073   -0.31431543119873    3.52281823070952
N         1.19187993855348   -1.06153167819390    4.49408054731746
O         1.10928426653182    0.97133643045363    3.66516070807005
C         1.16815771662494    1.91671735321450    2.58013206897795
C         2.53684300313384    2.11252812978557    1.90507219504704
C         2.67706392681819    1.19784083261444    0.66290248335219
C         3.77620972679841    1.71300903304198    2.75070050278869
N         3.73426282691520    1.70096911602885    4.12573670433006
N         4.80899097465906    1.39166585764863    2.04766312345474
C         6.00072090125108    0.83363252057465    2.70405723449205
C         7.12183751245213    0.49224538554543    1.70884424331956
N         7.39474728276374    1.66402992251283    0.87365983225038
H         3.67104617125779   -2.08647758004762    0.20672271739694
H         4.78560859840953   -0.58643941939382    0.44868357546735
H         3.64254978419622   -0.76529869031068   -0.89891925649252
H         2.93153894935148   -0.48305782348115    2.05533782636059
H         1.53926908048969   -2.05639729757719    1.12097900697537
H         1.38634925963039   -1.14838036537916   -0.43055668208089
H        -0.19879321365821   -1.94404581119169    2.48764669805339
H        -1.08932242040730   -0.38131185975495    2.53805570654926
H         0.75320958874338   -1.98380891611937    4.63779095084908
H         0.72680638795937    2.78053274610925    3.09798171717484
H         0.45508531385748    1.69732034323480    1.78374553193073
H         2.49562672708936    3.18067359081800    1.62590865255035
H         3.48015857212367    1.55740588888310    0.00504748407870
H         1.74280652163986    1.44163667005108    0.13610026929679
H         2.84104467004513    1.75355007750705    4.61417626051980
H         4.42528209472475    1.15044634423645    4.62058672993747
H         5.67515311696288   -0.06966762337838    3.23385957014670
H         6.39562864921341    1.53103320534559    3.45286794016618
H         6.80723176170242   -0.33618127165451    1.06437622316630
H         8.01884863903262    0.34329993559204    2.31850709824752
H         7.41849433757320    2.43613352497529    1.54423195824167
H         6.59864078234878    1.81204668001669    0.25825531874599
