39
 energy: -54.523517497203 gnorm: 0.108153856748 xtb: 6.4.1 (79825abcba525fcdf90b791dcacef51065a7a4e7)
C         3.27879641567738   -2.03540859756633    0.60094629943683
C         2.45217722546843   -0.91674712096296    1.24347053074282
C         0.97852763181388   -1.29600181140861    1.03174501907578
O         0.12831608184426   -0.16293938600654    0.88366269688350
C        -0.64903259367669    0.12076585953305    2.02938345121578
C         0.16521049337592    0.11337072839907    3.30955457516274
N         0.01301070217402   -0.64500903673870    4.34674722088730
O         1.30254850108992    0.81354402420286    3.31220222555857
C         1.69439063081835    1.87580329248161    2.42194197918359
C         3.00424690413417    1.55226666745865    1.68238285874123
C         2.84038543432504    0.44162261586156    0.61518113485134
C         4.16790581276082    1.33603188612783    2.68730727546830
N         3.97458243526539    0.38182383648193    3.65928573504210
N         5.22730419746432    1.95832184497310    2.29412746409690
C         6.48329396947513    1.87410537722388    3.05430634275531
C         7.61165729978644    2.24060710197563    2.07636502948675
N         7.67937100135860    1.47388333125199    0.83031476709211
H         3.33977138255409   -2.97925323945658    1.15195745463300
H         4.33580392251139   -1.75487794616350    0.53753865425312
H         2.92501083456198   -2.25557140117868   -0.40419097360302
H         2.70121551968281   -0.91132084186179    2.31736437603014
H         0.61325072015714   -1.84731771546789    1.89526207779164
H         0.89705071351356   -1.88301668464085    0.10817283489583
H        -1.40575753660026   -0.67280125846991    2.04648248974173
H        -1.30285359341528    0.98875352203784    1.93967848328402
H        -0.82330524618916   -1.24671642386082    4.39368881738924
H         1.86257239525851    2.80047267309414    2.99276394205795
H         0.86140385967510    2.15096411030817    1.77289778036827
H         3.34722788259688    2.40725288357646    1.07252351573273
H         3.85252266090810    0.41020383458687    0.18902115501858
H         2.14932622232693    0.85134796957843   -0.13605528735524
H         3.16474874670538    0.48826635925151    4.26921689902044
H         4.72206389728937    0.31652726285048    4.33933523609580
H         6.59753129647767    0.86432860292527    3.46654018590301
H         6.54910329068537    2.57632608811259    3.89430189121575
H         8.56015167236699    2.19412635531197    2.62299515989069
H         7.35555136521586    3.27727203414803    1.83503936883387
H         6.75850118229959    1.36851378241438    0.39756668189345
H         7.88677686107359    0.49622155800441    1.01893476029108
