39
 energy: -54.529683578205 gnorm: 0.109891441378 xtb: 6.4.1 (79825abcba525fcdf90b791dcacef51065a7a4e7)
C         3.90118216492908   -1.41444038601070    0.61521724910919
C         2.66396894479153   -0.65113910800239    1.09917465428751
C         1.27374052210115   -1.14518566688172    0.67081981754553
O         0.14417516367467   -0.34777769707047    1.01264015097762
C        -0.45915641701596   -0.46736493561151    2.28508880436408
C         0.57662602863301   -0.34160335187358    3.38655299578969
N         0.82578311830127   -1.29850476275375    4.22101909878747
O         1.38531326227613    0.70880235490029    3.54921897148362
C         1.38703991477666    1.86716516810723    2.69324529146188
C         2.69015960741338    1.89379968315337    1.87561655180397
C         2.70004905065951    0.85013534979365    0.73107854355924
C         3.95830406662545    1.80138675087903    2.76668447966120
N         3.95326247275157    1.23814958469642    4.02182092373029
N         5.01338344125178    2.26767162098584    2.18915006483328
C         6.35930178244458    2.05227177146892    2.74103896498232
C         7.07077922436095    0.95755886185860    1.92906604761026
N         6.89127292227592    1.00969281926751    0.47643007211622
H         3.70246427643155   -2.47465238622274    0.80132384572984
H         4.78509902724172   -0.99678598462966    1.10942229369478
H         3.97894457380268   -1.20057761528917   -0.44880932902328
H         2.67073361532670   -0.63293230358774    2.20140886882679
H         1.06785010702877   -2.15667856320214    1.01364545003535
H         1.29800960295203   -1.09279149106923   -0.42502524186830
H        -0.93646207633848   -1.45202551814508    2.35786677881200
H        -1.24620456880071    0.27610172792163    2.41448740247562
H         0.11163191788565   -2.03160638428560    4.34841508452316
H         1.41473948658962    2.67378020473436    3.44006602186260
H         0.49691446402375    1.84400550963676    2.06238942763360
H         2.76354331471618    2.92025603679202    1.47366135645430
H         3.61198762656157    1.12616463869319    0.18408942378718
H         1.80814176651498    1.05080178244133    0.11950005773615
H         3.15923614593288    0.72665861298299    4.40532554483978
H         4.75247681036772    1.26623371458174    4.64305132069459
H         6.49544036524086    1.64413319788010    3.74976352003282
H         6.91564187373356    2.99250252181690    2.64362668554334
H         6.68482982743519   -0.01091019752534    2.26628597123026
H         8.13425960235772    0.94465352634122    2.18857604732487
H         7.43989625954400    1.73709109696241    0.01137195814155
H         5.89778807461847    1.18775079041180    0.35112862872782
