39
 energy: -54.525126472323 gnorm: 0.102737135490 xtb: 6.4.1 (79825abcba525fcdf90b791dcacef51065a7a4e7)
C         3.65106088608499   -1.48572363455034    0.56610120521280
C         2.48973557386730   -0.64730992354422    1.11009214377031
C         1.11596352598245   -1.21320333466393    0.71917022850237
O         0.03822387422423   -0.34099421394406    1.04527910472017
C        -0.43409292359224   -0.44194997034945    2.37349611504183
C         0.48572750137357   -0.29280113109166    3.57081376947010
N         0.58217434087967   -1.13975651577705    4.54417792619627
O         1.19214598155563    0.83862877719502    3.63883327975715
C         1.29773651479299    1.85551919802516    2.62429752540181
C         2.62019635340855    1.80102570999343    1.83977379502723
C         2.62732225789126    0.81965744284283    0.64137241989733
C         3.94562999335491    1.54329153348920    2.60627971715687
N         3.94636350715357    1.13618273645874    3.92039193176961
N         5.00832156625442    1.76853561321880    1.91049828736672
C         6.28528146490337    1.55802806005683    2.60873509192462
C         7.45351001337207    1.01277810951542    1.77097553567265
N         7.78294110496050    2.05368217500027    0.79471449204175
H         3.51549328263584   -2.52435312084679    0.88397565529391
H         4.49631226287445   -1.07690422631169    1.13037033531989
H         3.85439141962589   -1.40232453817223   -0.49956202418787
H         2.63964413200981   -0.63481178038513    2.20218588118217
H         0.84189634346606   -2.20406195655274    1.07431037546179
H         0.98172383050953   -1.29965667303049   -0.36651667519523
H        -0.93942271484290   -1.40535186627593    2.51196040914585
H        -1.13732466741169    0.37256208960889    2.54946964040826
H         0.02722237309815   -1.98309596135820    4.33325957669398
H         1.20987117147385    2.77633374086898    3.21887008390721
H         0.55328152182249    1.85106865243570    1.82642175031201
H         2.90339242083504    2.78831914720602    1.43281255393269
H         3.60881548326312    1.02414141479687    0.19206340559441
H         1.84789591580870    1.16633380113808   -0.05296463160164
H         3.08608031263633    0.66497411724006    4.19797415938884
H         4.79728846334206    0.92175387565822    4.42576948098634
H         6.19159177411105    0.79094951364475    3.38684099112048
H         6.56572677187923    2.52751829077880    3.03824229840448
H         7.24571015873212    0.10080116497965    1.20025335772279
H         8.31117117686446    0.80171280528643    2.41779179129754
H         8.21750698063581    2.88988759746454    1.19256856296085
H         6.91105093023888    2.22444144775412    0.29967304947026
