39
 energy: -54.526574926214 gnorm: 0.095209460721 xtb: 6.4.1 (79825abcba525fcdf90b791dcacef51065a7a4e7)
C         2.86698396558566   -2.36588126660720    0.69188540357475
C         2.11782204383697   -1.11039055448392    1.15018626298469
C         0.60926696618801   -1.30341549243002    0.93268244679849
O        -0.21091302560446   -0.22745467027933    1.37791453362870
C        -0.43171049541307   -0.12439781548962    2.77005800383682
C         0.67554993774287    0.47359432215215    3.61756277947664
N         0.84825030346310    0.07060198394297    4.83487333723395
O         1.39978866551414    1.51400162931410    3.19706510833164
C         1.73873300596101    1.94638992397504    1.86565405179931
C         3.00578192794808    1.36885436554886    1.21114140920496
C         2.68507473418931    0.10306653613806    0.37793771216814
C         4.25956832211746    1.04764845811982    2.06880046683620
N         4.15424013446333    0.26350459841050    3.19425746421309
N         5.41305116212881    1.34278331260556    1.57227970899589
C         6.71348093867865    0.94936737924919    2.13493498042321
C         7.68716429452608    2.13906127314232    2.11335500038175
N         7.25494120353135    3.31550351223545    2.87115352397075
H         2.41243049224570   -3.18210991762605    1.26225886457185
H         3.94511983712934   -2.24798104682965    0.84585108402875
H         2.61210959409209   -2.63147341435410   -0.33204657960671
H         2.24756812932987   -0.97607806211612    2.23665928545807
H         0.28712036203781   -2.23524535677207    1.39197846650177
H         0.34760781599503   -1.31808580697065   -0.13292996250326
H        -0.55446538384313   -1.13193792027610    3.18535062991005
H        -1.30419610923606    0.51927335620437    2.88576344599681
H         0.17647000607644   -0.67178538090269    5.08236454065095
H         1.83174339932230    3.04204753378088    1.86121007664411
H         0.93314221769742    1.77635284042256    1.14944899251668
H         3.33900502516461    2.09765045745198    0.45062550869071
H         3.62793211492165   -0.18012325458164   -0.10975557583589
H         1.97369698701095    0.27400343172185   -0.44335160833209
H         3.26714033774565    0.24360356159567    3.69608865075833
H         5.02849145606496   -0.06199672772266    3.58820291191061
H         6.87338781433889    0.04025840427739    1.54283134557764
H         6.63096492689569    0.63675925165808    3.18303067518156
H         7.79441692384406    2.47422019352007    1.07567879512869
H         8.66791991343231    1.79712565900887    2.45933326170137
H         6.75628888616439    3.10534745860915    3.73922907970060
H         6.60344038232230    3.89475340325011    2.34728953458945
