39
 energy: -54.527802599415 gnorm: 0.099953092761 xtb: 6.4.1 (79825abcba525fcdf90b791dcacef51065a7a4e7)
C         3.08372838133724   -0.63782736153132   -0.71545091877180
C         2.23594798954176   -0.01809868360502    0.40023046684802
C         0.84254831816089   -0.65656343607892    0.50561100390171
O         0.12418229640913   -0.42160442226132    1.71282392318022
C         0.55264469694631   -1.05976941803011    2.89882606675366
C         1.88733094826113   -0.62939986171501    3.47785910458087
N         2.68617294074848   -1.46332768292636    4.06137353858018
O         2.24551439510467    0.65725152414753    3.48235681881715
C         1.67337655545840    1.72348313907950    2.70113549150059
C         2.60077724073500    2.24576947642262    1.59005850546796
C         2.27867362937934    1.52105560332226    0.25951748655985
C         4.11004127304457    2.24575431862044    1.95455090525312
N         4.50076003764390    3.19337922402908    2.87214284391779
N         4.85365914899653    1.27557969034360    1.54229643037695
C         6.21521015618676    1.13538387864491    2.07988237839936
C         6.27881245371792   -0.05463791570000    3.05132430310260
N         5.25592374199466   -0.07867512421507    4.09928071484941
H         3.08820998601376   -1.72988011454404   -0.64078732541569
H         4.09867161651435   -0.22667108510537   -0.74414923584364
H         2.63301283482971   -0.35892492459838   -1.66571707373054
H         2.79834551081072   -0.18374871285708    1.33380778818884
H         0.92008477481202   -1.73428340793655    0.38092772983202
H         0.15505274004406   -0.19841854177858   -0.21665184193537
H         0.43584091945967   -2.14067127680939    2.75501428006486
H        -0.16989310923958   -0.77444864110264    3.66398137484124
H         2.28634207678467   -2.40651332648329    3.94214356477514
H         1.50270807665945    2.50125432179480    3.45947614807597
H         0.67306523380216    1.52155951296497    2.31455701130856
H         2.22164204821210    3.27584965249279    1.46453103144850
H         3.21068844943385    1.68568530674168   -0.29839530506089
H         1.44076042010987    1.95564302479071   -0.30513204160386
H         3.78203448227994    3.81522049910960    3.24082108785891
H         5.16704050098985    2.83644349607680    3.54603210802415
H         6.51303918319363    2.06997154414439    2.57026979175770
H         6.79344127541402    0.84700181105389    1.19358565595742
H         7.26983969828646   -0.09279226266897    3.51717383045978
H         6.13062343012924   -0.96866526078434    2.46728960199332
H         5.35013575514780   -0.98826043550716    4.55770576832612
H         4.28937623220250   -0.08581869962812    3.78281252331488
