39
 energy: -54.517442013119 gnorm: 0.100963665664 xtb: 6.4.1 (79825abcba525fcdf90b791dcacef51065a7a4e7)
C         3.22295433513711   -2.42021198319780    1.28660970250891
C         2.26992582286534   -1.22249177654746    1.35548005647122
C         0.78720435484558   -1.56672483739692    1.14728401543547
O         0.13138027653365   -0.31021420922587    1.00694748085167
C        -0.57519438859750    0.14013504303405    2.14509223445808
C         0.33822318751123    0.46182479208774    3.31302573322961
N         0.14874094478792    0.01761785901001    4.51337981740571
O         1.42073215113697    1.23121957244050    3.17162761046582
C         1.71823736923340    1.97436785881307    1.97424730368707
C         2.91927614674056    1.35079208872859    1.24212285225422
C         2.59843534412861    0.02654643840868    0.50541737996674
C         4.21464489414310    1.17641351285018    2.08018283485125
N         4.21073175565497    0.71299356047315    3.37550352348519
N         5.25997136767982    1.31986667032300    1.33797406350823
C         6.55332829501779    1.06631405317381    1.99021143746917
C         6.99990404025236    2.28626448200911    2.81251769924598
N         8.21313184404939    2.92924684977507    2.30286711825370
H         2.80470475780851   -3.20070801365576    1.93009022817794
H         4.22023522343892   -2.10457365566745    1.61185748601076
H         3.43508619885180   -2.81253482783452    0.29412812112367
H         2.36239724874687   -0.92367144660709    2.41257653293061
H         0.39878176997999   -2.13811763152823    1.98732944892690
H         0.52775980915793   -2.15727390737257    0.25950540972016
H        -1.31258649722093   -0.59312122461912    2.49331904716783
H        -1.19590800510151    0.94971578431972    1.76009210194409
H        -0.69236420605067   -0.57264741286120    4.60174665881695
H         1.99315539288425    3.02344119701780    2.15591045170720
H         0.82446618186694    1.98378713116807    1.34820964136235
H         3.14589873226593    2.07325577532175    0.43760173408942
H         3.54291852953957   -0.24539184951453    0.01447714388154
H         1.73995872130883    0.22798026512793   -0.15202932513184
H         3.41732130295736    0.67658188579091    4.01452673815762
H         5.10564803382341    0.54062741979913    3.81694917685078
H         7.17297397042757    0.63667589118734    1.19391605467630
H         6.48103295041065    0.27145185142692    2.74254433205576
H         7.08929874799433    2.14070668317648    3.89484299552309
H         6.24995253521730    3.08377861101706    2.80570160426736
H         7.94741753756428    3.28614256715529    1.38178285181079
H         8.86338826614761    2.17654800589847    2.09066845678981
