39
 energy: -54.521292670522 gnorm: 0.105423326542 xtb: 6.4.1 (79825abcba525fcdf90b791dcacef51065a7a4e7)
C         3.49873933048365   -1.73460226343094    0.31416418077986
C         2.50266573003790   -0.89418734179421    1.11981940054914
C         1.06761315544639   -1.23032712122243    0.68629994846613
O         0.11238982570433   -0.23318915103147    1.03541709307406
C        -0.42900853148294   -0.46227673770474    2.32065729400847
C         0.37590484718735   -0.15209943671546    3.56877151124574
N         0.25033998376012   -0.85136712470712    4.65012779103219
O         1.24596184659597    0.85999043312277    3.61839324598091
C         1.45834309939138    1.82643464550050    2.57179011569175
C         2.80010601553377    1.57856879958119    1.86074730110646
C         2.77071127632385    0.56626353351256    0.68870877433213
C         4.00150680442498    1.33863318851713    2.81458148004543
N         3.95912172736292    0.73267882431378    4.04894441206731
N         5.06818844089453    1.64725185956194    2.15799569600961
C         6.42222432137672    1.48460054282379    2.70809207689434
C         7.41097757075452    1.45076188896064    1.53118150798196
N         7.61468236618500    2.73394341622317    0.85513323538139
H         3.29737109468468   -2.79709461608170    0.48367757005127
H         4.54514956081028   -1.50818484517030    0.54599090886960
H         3.24280030943290   -1.39127571677480   -0.68611525170950
H         2.67401948501690   -0.91012876164250    2.20870933107616
H         0.70098566230151   -2.17474722758205    1.08214475067810
H         1.08501317558861   -1.19991451037290   -0.41050580008966
H        -1.04603155780093   -1.36597301210783    2.39338562368917
H        -1.28463436509922    0.21358727796283    2.31404372378386
H        -0.19243043318467   -1.75945103883246    4.44272087767226
H         1.47192899663606    2.82477624326398    3.03251319795250
H         0.64365630125790    1.75174711247436    1.84960869711463
H         3.18170836642824    2.48089229411708    1.35010283532783
H         3.75703405246233    0.53578578937374    0.20573908509774
H         2.08640276069930    0.95898120251643   -0.07763876666951
H         3.08814281954720    0.57340643025267    4.55412227262625
H         4.70035086315470    1.03262246743199    4.67029188074133
H         6.60309005989324    0.62339515024207    3.36249936319164
H         6.72598690093640    2.35597610889645    3.30094132661716
H         6.97831812022604    0.74731038017540    0.81106463610322
H         8.35873890116015    1.03948164215087    1.89325818943442
H         8.33038127608827    3.22969223027005    1.39214632172151
H         6.74022860093537    3.25304769709435    0.83844211656218
