39
 energy: -54.511374836075 gnorm: 0.125718274560 xtb: 6.4.1 (79825abcba525fcdf90b791dcacef51065a7a4e7)
C         2.42347185282734   -0.03732435781502   -1.51652321563855
C         2.89943129413578    0.46794969026349   -0.15061659217505
C         2.63718575284376   -0.63079965500384    0.89067207471694
O         1.25187096107334   -0.60759258510614    1.22079761797452
C         0.89029225299410   -1.22072702411102    2.44176554151333
C         1.37703222509872   -0.61717659761484    3.74587277605527
N         1.57626110675040   -1.18083008573155    4.89333773342778
O         1.52854404786349    0.70907395513364    3.78935879373216
C         1.20440217027390    1.63107194649552    2.73136538814253
C         2.29553663533987    2.18799446031346    1.80044650437907
C         2.24998143757308    1.79588418987786    0.30262324054347
C         3.66518872546707    1.91496545010669    2.47885707920526
N         3.84271546968497    2.47246752668572    3.72396942309414
N         4.62971952370771    1.32311518937303    1.85953995931249
C         5.97667626427969    1.40174494421647    2.44434723710851
C         6.32719032037360    0.14293381432139    3.25455150794003
N         6.10018848500850   -1.18963825892775    2.69080193950495
H         3.20066803214649   -0.71225847838737   -1.88881877056562
H         2.33154020499311    0.80816681813822   -2.20694054305199
H         1.48068367131195   -0.58042512615453   -1.52787355118624
H         3.97919153677814    0.68967747340059   -0.16649474846231
H         3.26444479170971   -0.32582019716789    1.72528083834371
H         2.88824620140533   -1.66613511395501    0.62749976701686
H         1.23940003455472   -2.25859982604795    2.38161914906700
H        -0.19979342606069   -1.23545340002681    2.46244925244157
H         1.42097539016635   -2.18906950612341    4.74161666480261
H         0.95440064230859    2.51922637164872    3.32954365943346
H         0.34725025772082    1.39214620407542    2.09966617877320
H         2.42365769242876    3.28477163141254    1.76536611086001
H         2.64710808743069    2.59286330188192   -0.34091070197174
H         1.16913009399740    1.80505643482949    0.09898114698916
H         3.11500413657866    2.93327646628188    4.26919228301089
H         4.54846444038797    1.95197574073583    4.23039434162474
H         6.13525084727871    2.29842985553021    3.05544977859727
H         6.68840667852657    1.60402214116349    1.63467997802582
H         5.79826857998815    0.12748593833284    4.21403558170771
H         7.40385394741516    0.08925633103993    3.44538301785771
H         6.48177696132331   -1.15287479362275    1.74242777630697
H         5.08555929800590   -1.22795943815677    2.63184147818058
