39
 energy: -54.521128208154 gnorm: 0.112628510443 xtb: 6.4.1 (79825abcba525fcdf90b791dcacef51065a7a4e7)
C         2.78371922493515   -2.65746256332078    0.99336969231449
C         2.28888190446792   -1.23903835407789    1.29461537171106
C         0.78280934130682   -1.32978568097220    1.00510665688551
O         0.10763238264782   -0.07571495017473    0.99728453635758
C        -0.34441507225368    0.33349200190983    2.27228980167853
C         0.61374929403635    0.71781654489384    3.38409026201051
N         0.38269058754553    0.25105460356769    4.56849660284613
O         1.67003499639014    1.51790458861616    3.21703635008436
C         2.09221702694002    2.00065620759349    1.92738077129482
C         3.21101472254936    1.16912843562898    1.27607412129841
C         2.92332172655332   -0.10957208530003    0.45056941520641
C         4.30676070091934    0.79558306785078    2.31074181639496
N         4.04691729050392    0.17937840378439    3.51299066017745
N         5.45892753265514    0.86749415981022    1.73498101302172
C         6.65058059620324    0.96088428646447    2.59155321083047
C         6.90995297585240    2.45695593632052    2.83319784397857
N         7.00010099023644    3.23949674529063    1.59845294521315
H         2.26467577337352   -3.39278737786916    1.61631853612840
H         3.84991410115799   -2.80156295282848    1.19939495189420
H         2.53699548753087   -2.91532601837158   -0.03452654356783
H         2.45761748176080   -1.08971441839100    2.37374843815814
H         0.34279331660955   -2.00511353667877    1.73541915339992
H         0.67474673418925   -1.66858424191727   -0.03304002838167
H        -0.82469118510514   -0.57894062604222    2.64575377354201
H        -1.08444018391770    1.12108666027328    2.12741417523503
H        -0.51741469894781   -0.24830448110167    4.50422654202052
H         2.49464277873591    2.99290166725269    2.17765810179241
H         1.21287174809728    2.18950657826264    1.30937897957545
H         3.63597752137300    1.82997545189161    0.49938007174286
H         3.87416999831840   -0.36441083651000   -0.03724817173416
H         2.28084365061088    0.17963584135130   -0.39404562172376
H         3.22458982710431    0.61010361613369    3.93421504120065
H         4.85681120766588   -0.14147311025559    4.02930999294538
H         7.38125750497785    0.52264731076694    1.90112170529608
H         6.66590876028111    0.36726136711824    3.51373225905517
H         7.84761888347288    2.58306526292019    3.38590537985008
H         6.02457658617664    2.80791527658599    3.37304846967408
H         6.08924791204575    3.32831042081985    1.14146971511542
H         7.71790408418250    2.98478065659340    0.92443835461252
