39
 energy: -54.523158630036 gnorm: 0.115683991077 xtb: 6.4.1 (79825abcba525fcdf90b791dcacef51065a7a4e7)
C         3.84843743210378   -0.98928656041793    0.11711381311013
C         2.63857670704709   -0.46223113842978    0.89556727335246
C         1.28681536629614   -1.07088461001932    0.49234626915213
O         0.17513158770934   -0.41787427120818    1.09761908771604
C        -0.09009669648008   -0.72999446422707    2.45027226046267
C         0.86269208903862   -0.28218454110174    3.54276683210704
N         1.12195896541649   -1.08975204719462    4.51984852623966
O         1.32709861958598    0.96113883255125    3.69196788570392
C         1.27617101724958    1.92682831193934    2.62456517933341
C         2.59628094847265    1.95026952155288    1.83456049831850
C         2.59827873755771    1.04965564986516    0.57432599795004
C         3.78818433363524    1.56121320422029    2.75038479045978
N         3.70435484717144    1.79096849585998    4.10419947430169
N         4.91696053361200    1.32617840294203    2.17178039960269
C         6.12299515221582    0.97580452209838    2.93675968286774
C         7.10675725353848    0.60909867151417    1.81353419803466
N         7.20113981203859    1.62733626110767    0.76502292414220
H         4.04453868805016   -2.06592345033225    0.09321288739129
H         4.59477363216797   -0.39927742495410    0.66011873877986
H         3.87638493513948   -0.60005110084689   -0.89858866874785
H         2.82252753437191   -0.71542700834882    1.95261573908414
H         1.33848019327503   -2.13001116249430    0.73446163615114
H         1.19852554778302   -0.89967341206322   -0.58797875893244
H        -0.23077179904102   -1.80656901559310    2.60477640905873
H        -1.02951442687222   -0.20094578514449    2.61316268135228
H         0.87795111212054   -2.08789443623306    4.43123929676195
H         1.14922231124669    2.81624397264297    3.25856841467612
H         0.35780010934111    1.88470113604316    2.03663747465561
H         2.66334779872779    2.99628190317303    1.48538155346680
H         3.31148596723736    1.41246112661205   -0.17848796540013
H         1.59779034412151    1.23473853095318    0.15652080338282
H         2.75606691395253    1.78053547812559    4.47812164735563
H         4.24310646693311    1.14815064546514    4.67164234544027
H         5.89485356150958    0.13071571132606    3.59737482537561
H         6.47730237347137    1.82671943625006    3.53127420866343
H         6.61649204835613   -0.25625254088163    1.35373658382782
H         8.07730662585385    0.39785926204349    2.27387574013090
H         7.57277922330197    2.41593895154197    1.30015357823784
H         6.25355302797195    1.79236604290602    0.43447535678991
