39
 energy: -54.529681304523 gnorm: 0.107878237295 xtb: 6.4.1 (79825abcba525fcdf90b791dcacef51065a7a4e7)
C         3.50210271044633   -1.90141286197610    0.89330859670237
C         2.47087182327028   -0.83095641079323    1.26509618753695
C         1.12809061649466   -1.15693125591430    0.59354279429502
O         0.07137821741419   -0.23186763138136    0.83068137039066
C        -0.47584771437625   -0.25947423423082    2.13345430782529
C         0.47512957291467    0.06433057856559    3.27041395540910
N         0.62788375798137   -0.65420864134173    4.33551525692545
O         1.06681915454926    1.25591094431815    3.38800251491302
C         1.46768420271894    2.07942030240693    2.27641002620845
C         2.88817055686425    1.73870537586255    1.79321345175610
C         3.02485141080512    0.54199509492859    0.81930219316276
C         4.01018590241747    1.65119901721787    2.86286610134192
N         3.65127786626655    1.22540727644979    4.12084680600172
N         5.17787736650828    1.70204081042175    2.31690655093244
C         6.47618852620847    1.36913551968065    2.92191632787809
C         7.58292317269119    1.74228160334342    1.92201786034600
N         7.13919334911317    1.20437914926145    0.63405181368982
H         3.24090340871757   -2.92405647163433    1.18339292929552
H         4.49437247743822   -1.71480436300052    1.31823308645673
H         3.74040761633291   -1.87631184596088   -0.16806671192701
H         2.41243258468616   -0.94961562084884    2.35953775697417
H         0.81924661781671   -2.18448638426094    0.77182345967307
H         1.29899722745180   -1.06421150499706   -0.48645929321496
H        -0.82320963754732   -1.28311558006132    2.31831067421323
H        -1.39847708438735    0.32130167841751    2.15309733723453
H         0.06592528135896   -1.51878298658712    4.35535294074363
H         1.46605124257973    3.13065309039556    2.59896736974878
H         0.78086898203082    2.11790740406460    1.42927225953937
H         3.23005512837593    2.64778277034145    1.26665952867849
H         4.09645814614862    0.53611161886101    0.57713361967401
H         2.50793564778598    0.75931263015946   -0.12693511372456
H         2.67340798169314    0.99131676740803    4.28862270770564
H         4.39922432421685    0.72286455576315    4.58289269831254
H         6.48311298591383    0.31168886784729    3.21242393623917
H         6.58832938663382    1.89849643735741    3.87598066435289
H         8.55776738709866    1.34728410410778    2.22903946328645
H         7.63096135428966    2.82101039741175    1.74163209478405
H         6.20125793939650    1.59182142171063    0.50544184384702
H         7.12611196329349    0.18831252614871    0.67711839490407
