39
 energy: -54.527904097182 gnorm: 0.093936641759 xtb: 6.4.1 (79825abcba525fcdf90b791dcacef51065a7a4e7)
C         2.40680383282622   -2.68474421393432    0.73219854120363
C         2.00940817592899   -1.27586768108456    1.18461853599136
C         0.52706889177460   -1.07737100596215    0.83308711927207
O         0.03047849916407    0.25175948275796    0.95729929554215
C        -0.62135182512334    0.47270385298895    2.19169651077851
C         0.30053252272465    0.26712985393056    3.37902677860614
N        -0.00601428923866   -0.26956966582291    4.51571314329468
O         1.54422780834678    0.73199233910309    3.23441587922709
C         2.10052939745675    1.60157374441424    2.22999807669134
C         3.26393182748089    0.97688967352075    1.44030702940396
C         2.90093916064035   -0.20755406762737    0.51045223113909
C         4.48543330618948    0.82487087680095    2.38664599048590
N         4.34575502266131    0.18161797425730    3.59467952450264
N         5.61413572113411    1.21981075182921    1.90268967644855
C         6.84357876216668    1.38121807165737    2.69319096268293
C         7.34375555646085    2.83507602682760    2.68908880680899
N         7.65985890240087    3.48485353841393    1.41513447734237
H         1.78522928086366   -3.42043740032751    1.25236637793322
H         3.45654054460174   -2.87190740157620    0.98320778215010
H         2.16409093916560   -2.73685396881046   -0.32719367873611
H         2.17378192257633   -1.28401340644679    2.27467013065548
H        -0.00395780165552   -1.68930491969626    1.55874937850586
H         0.25687289580859   -1.32316201264803   -0.20170341777381
H        -1.46856633958768   -0.21557832802772    2.29737990757219
H        -0.92293030661913    1.51863924874205    2.25495022278995
H        -0.95857805518412   -0.66439442972157    4.49533340534808
H         2.60013649319630    2.41176750849814    2.78055702677754
H         1.23078756522624    2.00799850996593    1.71114651602544
H         3.63095768933881    1.75284351359018    0.74478307161015
H         3.79557346825405   -0.76588486424158    0.20236540993888
H         2.35828553378904    0.07611819213141   -0.40324960263947
H         3.47842480697471    0.25095863855824    4.12581687347767
H         5.11009545284797    0.24746523430951    4.25566925070989
H         7.64919199757864    0.77677355088132    2.25928978928659
H         6.65627422581244    1.03776856799388    3.71788448418730
H         8.28845706181698    2.80699154089165    3.24348657144301
H         6.60888703069124    3.52557843840919    3.11532488627715
H         6.87232251103778    3.32358644859931    0.78255702420348
H         8.49314745079623    3.05621665872508    1.01976394044876
