39
 energy: -54.532381806016 gnorm: 0.099103964617 xtb: 6.4.1 (79825abcba525fcdf90b791dcacef51065a7a4e7)
C         3.20521188864519   -2.02333528757101    0.57059530878283
C         2.24332172799226   -0.94284925894803    1.07542938326362
C         0.78111720140365   -1.17530109884943    0.66527208663978
O        -0.03259165966070   -0.04954595229423    0.98018756475970
C        -0.50844032833393   -0.03710034586013    2.31092000727000
C         0.52751216762994    0.10623038681542    3.41007574891732
N         0.65448473841300   -0.70309673668879    4.41154507591792
O         1.26901832090171    1.21697585793786    3.42423660072747
C         1.64773063297840    1.90283379680117    2.21565305754495
C         2.96627802796279    1.49855225160314    1.53349745233849
C         2.85280215126538    0.35440956345990    0.49553742399365
C         4.09059471969749    1.26220330466133    2.57790337493290
N         3.92137033941167    0.44923870228743    3.67475372817934
N         5.22984917705771    1.75819574500702    2.23113131219568
C         6.36971298869187    1.72819006962030    3.15972422599061
C         7.59364259591630    2.26550133100847    2.39999436740356
N         7.70333303814210    1.70404845764556    1.05172494960342
H         2.74177002212270   -2.99184546419928    0.78362964232978
H         4.18373019688055   -1.89239519783372    1.04529464669045
H         3.38538651187309   -2.06806108019906   -0.50153973180121
H         2.27937318030294   -1.01044437946611    2.17516967178185
H         0.37692148341138   -1.98621779292309    1.26700134353346
H         0.74279857385685   -1.44729018631894   -0.39716104018098
H        -1.07730492691258   -0.96022895450123    2.47493350553141
H        -1.12748439752340    0.85979586234262    2.34687982228883
H        -0.04786050108798   -1.45362360002213    4.32728204766457
H         1.76173125222497    2.92095014552637    2.61512676843321
H         0.84761532325124    1.85964853466099    1.47484989165000
H         3.27738153103876    2.42615606230000    1.02033902231593
H         3.84487926169207    0.16115117473503    0.06489206648859
H         2.15929656883211    0.63847893518295   -0.30953925474548
H         3.03915564970304    0.19221373508738    4.11612888420654
H         4.72169997675689    0.32513829634416    4.28264438720484
H         6.58049740351577    0.70599886841193    3.49637110933777
H         6.04157275204261    2.44422954192422    3.92303856500814
H         8.58140738652375    2.02576674177825    2.80920651138477
H         7.48546536614976    3.33426250580920    2.18892626542855
H         6.73482747343572    1.75657836768332    0.72674425523811
H         7.81472816017108    0.69659668027192    1.13568493523617
