39
 energy: -54.522087541286 gnorm: 0.111939924199 xtb: 6.4.1 (79825abcba525fcdf90b791dcacef51065a7a4e7)
C         3.74055021234753   -1.20916242165384    0.01442913324909
C         2.72572973269151   -0.52193239102236    0.93388247703113
C         1.35640497435586   -1.18720377221130    0.72731860313025
O         0.23719487778447   -0.35213571790786    1.00776221242074
C        -0.35987294516907   -0.53839361314987    2.27514285234614
C         0.53680107875807   -0.37217473933452    3.48767391670113
N         0.88146784638278   -1.38926431759574    4.20934339962795
O         1.20677005399669    0.75838742679952    3.72591361824027
C         1.31249611098855    1.84958567599589    2.79177942450248
C         2.63028695368577    1.78929526463214    1.99985806910314
C         2.63218339000991    0.99833427869149    0.66806326325189
C         3.86816290647203    1.48036341425030    2.88470653907002
N         3.80044962868045    1.85989035413531    4.20531369291528
N         4.97164852655339    1.27253514138380    2.24965774616716
C         6.27283477947589    1.39130987829311    2.92440328470509
C         7.26715940490842    0.86002893333648    1.87895810228744
N         7.19329970844183    1.59258970054797    0.61286520986389
H         3.52979446528272   -2.28328981816075    0.01191872201070
H         4.75275315139410   -0.90608135016328    0.30351375650487
H         3.67188298772007   -0.76287678859868   -0.97554600960512
H         3.12876907092276   -0.66931074906481    1.94933135424094
H         1.24971318720922   -2.11941335872889    1.27744613868595
H         1.36593140207221   -1.28492553433563   -0.36564536636658
H        -0.80816008778274   -1.53891806026411    2.30089654661412
H        -1.10729808348704    0.24863371948796    2.17085905417599
H         0.24912569112456   -2.18633839697240    4.04053589690618
H         1.15890445418876    2.85783169692635    3.20285829301547
H         0.49431277549499    1.74338908158475    2.07754058428538
H         2.73196379691225    2.87193547510522    1.80462027689430
H         3.57121870903436    1.22349787686491    0.14410214636250
H         1.78592079967685    1.42668942216169    0.11115630878820
H         2.91250266849301    1.81683801751644    4.70418574166827
H         4.52316843984005    1.40308395802473    4.74795993005104
H         6.38626412077899    0.95379921643341    3.92358006809941
H         6.48472208431634    2.46172551959513    3.03554032896312
H         7.00098779384454   -0.18594734602550    1.69003263764704
H         8.27715121948270    0.94235584031110    2.29325427643373
H         7.61609908642757    2.51966032570887    0.70317364359034
H         6.22011767852334    1.80205395541048    0.40439771021101
