39
 energy: -54.518081039613 gnorm: 0.112688821348 xtb: 6.4.1 (79825abcba525fcdf90b791dcacef51065a7a4e7)
C         3.16520365078478   -1.72978174650648   -0.10321735292597
C         2.32904109554215   -0.81340345073268    0.79601741405799
C         0.81668416429469   -1.05876007621733    0.68252037852402
O         0.02644434846105    0.01821257185482    1.17675661853081
C        -0.39370480473170    0.02068224540926    2.52616547933014
C         0.78399639065031   -0.03776492905756    3.48088451818011
N         0.95010763639755   -0.99197774890021    4.33876457456413
O         1.63025233147632    0.98846265211398    3.60128072459639
C         1.68693441292210    2.02177273043080    2.59950442765168
C         2.70065264338787    1.79566810403478    1.46433961848785
C         2.54399999395370    0.66904449576650    0.41292176953828
C         4.07610700400348    1.57608692791415    2.15037317575831
N         4.19285734449172    0.51800216399081    3.02184036154420
N         4.99189884951985    2.43551452152182    1.85563666483071
C         6.18550740839370    2.44639524072371    2.71450503616274
C         7.14820506275684    1.35986909682971    2.20797695211631
N         7.44193016304684    0.38361370413895    3.25951996998219
H         2.70126739121084   -2.71895281300807   -0.03630174842396
H         4.24101407088202   -1.66622869366963    0.09318985773580
H         3.19474910276033   -1.31244982039882   -1.10765648232830
H         2.62545631686355   -0.95906872101367    1.84778599673793
H         0.44212919082561   -1.98745595566708    1.10710333959695
H         0.54286215775621   -1.18759624427355   -0.37229395574597
H        -1.01263170723273   -0.85887438366484    2.74060291751518
H        -0.88667222641730    0.97486864510927    2.71442835333467
H         0.38960003368383   -1.85752939899472    4.35696422776362
H         2.04556630429237    2.86403080559505    3.20870126781582
H         0.68330155202720    2.18424709803143    2.20306783540495
H         2.63543931099063    2.71356149937516    0.85296024880328
H         3.50790219737567    0.61144636179149   -0.11109753295555
H         1.69964024121002    0.91284252934307   -0.24845028215129
H         3.45349240643484   -0.15071403358276    3.23475998437086
H         5.10232385000420    0.36555098724987    3.44027651378503
H         6.02711307640580    2.32374332478812    3.79269972637596
H         6.65821324450809    3.43063784699565    2.61032727625194
H         8.07431471677156    1.82286251140004    1.84941797252043
H         6.75433883920018    0.82695084019181    1.33655854819591
H         8.32298915117270    0.48991442459502    3.76825377762992
H         7.40942059898861   -0.55410830403597    2.86704347463188
