39
 energy: -54.522461271461 gnorm: 0.112726714535 xtb: 6.4.1 (79825abcba525fcdf90b791dcacef51065a7a4e7)
C         3.42436021006301   -2.00267676856329    0.94265594043586
C         2.41176349701268   -0.88735725692265    1.22238880128612
C         1.02694544943003   -1.27853051951012    0.68427411030283
O         0.20848901737257   -0.12516367791780    0.85307140098388
C        -0.50326737542470   -0.07173406914815    2.07290081489444
C         0.24383391895358    0.08341303060463    3.38425647035595
N        -0.01768769034780   -0.40278214366671    4.55442481139620
O         1.19696695003974    1.01721532151123    3.44203297915152
C         1.58365693227206    1.89645343252516    2.36876249432620
C         2.95050459177060    1.58445084943642    1.73494155692105
C         2.76531611454630    0.50177153775266    0.64278264463043
C         4.10143203588185    1.15701123902949    2.68541198393269
N         3.92266477902602    1.17690950505762    4.04933111132942
N         5.17251630118037    0.96398912847984    1.99282187711111
C         6.54500207062997    0.80793062935777    2.49720585288323
C         7.44456153712397    2.03894461883456    2.29897911600599
N         7.76280455624593    2.41916304550517    0.92084738639682
H         3.17721915368184   -2.89323971403607    1.52916501360260
H         4.45239283557673   -1.71246946309676    1.18537283305563
H         3.51990960136571   -2.29303629161335   -0.10161342144768
H         2.39415243411551   -0.83898402381144    2.32359150950069
H         0.59632640190445   -2.11599660708135    1.22856810618650
H         0.97044160605593   -1.55690093493389   -0.37569181547212
H        -1.11384402408018   -0.98257228664520    2.05729029384028
H        -1.17233634509817    0.77402015872752    1.91172396731580
H        -0.73867221960191   -1.13772974205913    4.49349041138454
H         1.74916981606687    2.90639971007394    2.77094441872886
H         0.73984383492100    2.12653181760598    1.71616598648096
H         3.24740796196626    2.52010800841705    1.22802945184516
H         3.71871854970120    0.54208454144522    0.09833806261619
H         1.97055001852738    0.74986806185443   -0.07595850731617
H         2.96087004044155    1.28572905418659    4.36915266018937
H         4.65571146227683    0.73357780365693    4.58929320656905
H         6.96138110575825   -0.04424707952262    1.94669908973483
H         6.49620972788750    0.40598214248125    3.51656547128654
H         8.42484442840392    1.84376763226694    2.74793114822958
H         7.00062406893153    2.94421533749039    2.72548462561982
H         6.99883882541783    2.67261639808160    0.28958466093159
H         8.32896676146151    1.71784167280624    0.44965111821071
