39
 energy: -54.529015689683 gnorm: 0.108698287533 xtb: 6.4.1 (79825abcba525fcdf90b791dcacef51065a7a4e7)
C         2.61205856132645   -2.62433932557978    0.61950022705721
C         2.10207936875131   -1.31036085950753    1.22026805747995
C         0.64295288251464   -1.12888794306885    0.77493400918386
O         0.04361374372114    0.15764559333519    0.89427625242764
C        -0.51646520589837    0.41768707225031    2.16554557365571
C         0.41902093599897    0.35343957328486    3.35828300119991
N         0.26162442031253   -0.39922169245640    4.39886005698244
O         1.53264523925173    1.09069781880868    3.36714961530971
C         1.93706997536343    1.78898124835918    2.17411180095476
C         3.19222591594979    1.12525937138732    1.58131846817682
C         2.93054976996914   -0.11621739737879    0.69274583620859
C         4.29562635260120    0.90111245653348    2.65042942141318
N         4.07475274085142    0.17769400892113    3.79956371192364
N         5.35765466527619    1.51961316529764    2.25836717186258
C         6.65315315479642    1.52615987936869    2.95415121256921
C         7.51452558913295    2.70360752460662    2.46881515128933
N         7.53837258991678    2.85387903980451    1.01212660108866
H         1.87396430779189   -3.39554844948513    0.86163100132904
H         3.64943585309725   -2.73675237110908    0.95295863262513
H         2.58624033211491   -2.55593370330441   -0.46612904964929
H         2.16835243064656   -1.33670175377371    2.32036420905692
H        -0.04136973816543   -1.88637610630514    1.15037027448493
H         0.67917213176269   -1.16757177659877   -0.32115096043452
H        -1.28376842675644   -0.35718647621040    2.28169438148806
H        -0.92569477999374    1.42836065697382    2.16678597256867
H        -0.67627283716451   -0.82669244580104    4.36284400159973
H         2.21621719681145    2.80827581910968    2.47784144421107
H         1.19330752464127    1.71302152395226    1.37919900236814
H         3.72093354057125    1.88720908685579    0.98092969139467
H         3.95193782110514   -0.39372171955022    0.39816302990644
H         2.48790880151922    0.31797382831479   -0.21573686471306
H         3.14849035936082    0.03511348267348    4.20066894975611
H         4.92856016495051    0.20947889031960    4.34312797199519
H         7.11624335081906    0.56576133668034    2.69760072623660
H         6.74738229781087    1.54255857796698    4.04680360651313
H         8.52977064170222    2.52269851771507    2.83916086262051
H         7.07397017444501    3.65931321262912    2.77054361649214
H         6.59016365670972    2.60980217456220    0.71598276129877
H         8.18206705166968    2.17820528491147    0.60772623989037
