39
 energy: -54.516684508992 gnorm: 0.119479665618 xtb: 6.4.1 (79825abcba525fcdf90b791dcacef51065a7a4e7)
C         3.09148028012499   -1.73503846379903   -0.08384249919744
C         2.40390511426294   -0.75057795504558    0.86779717082112
C         0.91458273885307   -1.08512163550427    0.69371584482130
O         0.00676820604055   -0.13662489605390    1.24584374067249
C        -0.45455167291889   -0.44689317214109    2.54521021658743
C         0.63881155303332   -0.37062162648885    3.59431655162776
N         0.79440066879077   -1.19139979006456    4.58233904991912
O         1.60639231836386    0.53545999986776    3.43124925948865
C         1.55970597744911    1.61940347789292    2.48394506806392
C         2.84721225439323    1.77056480454989    1.65519606169542
C         2.79812517341768    0.70606408068170    0.53103906257529
C         4.15276357178265    1.67133183806985    2.48971456918292
N         4.25335841715070    0.67655489008214    3.43466352601019
N         5.03875084785399    2.58017030056250    2.25906490655208
C         6.25176271692763    2.48395155835405    3.08478811220103
C         7.13638213533488    1.34778112808330    2.54584305928277
N         7.59071140945745    1.67009706200472    1.19129918996323
H         3.33288380276594   -2.71677297280042    0.33579500919833
H         4.09193202394506   -1.35676572962328   -0.32046221720270
H         2.64925599781921   -1.86241248333472   -1.06981936271359
H         2.70970311063537   -0.90324745406195    1.91587975941449
H         0.74680946911227   -2.03994286251841    1.18687576643894
H         0.52574076807730   -1.25219382787197   -0.31875604395349
H        -1.06575029275198   -1.35137249004200    2.44019980777269
H        -1.09072453448183    0.39624152098186    2.81602279312975
H         0.05947807165538   -1.91381936918514    4.54137089123894
H         1.59311254529474    2.50605837416852    3.13345518157723
H         0.64892870145983    1.66334549198517    1.88445140826206
H         2.84898449379856    2.70712725386848    1.06918120174318
H         3.72070184658303    0.66269177166754   -0.06393349457253
H         1.96736110685326    1.05959845700632   -0.09716343573390
H         3.31814630850329    0.38198886113521    3.71356459210890
H         4.87537443551069    0.72718278739118    4.23215482741023
H         6.04050061032123    2.44064153968854    4.16002232344702
H         6.79897185539287    3.42113336630672    2.92576064017394
H         6.63004150400721    0.37844874043832    2.61381673735806
H         8.01655739957584    1.21442937017284    3.18303323326790
H         6.85757463493506    1.81180262408868    0.49215337237821
H         8.26526299882701    0.97619376172908    0.87841646625519
