39
 energy: -54.530732793906 gnorm: 0.099711801025 xtb: 6.4.1 (79825abcba525fcdf90b791dcacef51065a7a4e7)
C         3.21921400867194   -2.04510817029261    0.26542120471063
C         2.37600458382877   -1.03276784891846    1.04753699084237
C         0.89263046760371   -1.34604784915363    0.79901776711631
O         0.09483745345062   -0.22925572214707    1.17970157453908
C        -0.41222603011479   -0.20291961361324    2.49865142158325
C         0.48780827621524    0.24520287030089    3.63487722154659
N         0.43195179680823   -0.32479863116926    4.79507184609339
O         1.33482593719113    1.27529215709375    3.56232019865094
C         1.65343795100783    2.09823329171059    2.42400891591727
C         2.89899723476562    1.50313431028799    1.74446030421327
C         2.73812913373210    0.41730250788255    0.65157832104935
C         4.15856653369624    1.06355285508480    2.53880650737258
N         4.00456696822808    0.33094512834504    3.69301579847140
N         5.28378718437643    1.48405003125649    2.06846547582487
C         6.57385669257439    1.12344526304226    2.67522696839875
C         7.59280374663667    1.68145095994006    1.66811571359624
N         7.21797852801088    3.04312997660453    1.28026515233640
H         3.03600500617441   -3.06381998055223    0.62155974082676
H         4.30371009618908   -1.94927429862955    0.38652837750358
H         2.99622057602425   -1.95527677409195   -0.79577674285225
H         2.61676113407900   -1.19569112872300    2.11092299440775
H         0.56518819833935   -2.24699532610281    1.31293737009981
H         0.67447970115993   -1.44236114223585   -0.27212392375995
H        -0.87890928906720   -1.17779612788517    2.68438320573970
H        -1.25428079821348    0.48960483325101    2.48176579272720
H        -0.26635407702982   -1.08289012993616    4.83175761106834
H         1.89910637417888    3.05899489342173    2.89910937081001
H         0.88264271828553    2.19596546049907    1.65774399511302
H         3.27478462612017    2.31388999964705    1.09482590680760
H         3.71152255845769    0.39015337047488    0.14286485006849
H         2.05585155346572    0.67314460027004   -0.17233670834144
H         3.07114537628241    0.28836433750643    4.10055431091004
H         4.79211646798631    0.39368555048872    4.32648949238836
H         6.66384526290864    0.04744729727348    2.86697283669217
H         6.75224746722174    1.65356636342890    3.61872347903968
H         7.51640826418337    1.10932251809258    0.73675149270815
H         8.63900933090589    1.72147407205915    1.98804466038347
H         6.94294002491947    3.65593660781188    2.05175509135394
H         6.34850462644672    2.81087494996307    0.80646142291514
