39
 energy: -54.521952094739 gnorm: 0.108159299362 xtb: 6.4.1 (79825abcba525fcdf90b791dcacef51065a7a4e7)
C         2.83337911282114   -2.39986832719432    1.12870712802462
C         2.09819895075602   -1.06392683098387    1.27807449285418
C         0.71952586555755   -1.06465521749063    0.60016231530518
O        -0.10280429352569    0.06553016963255    0.87415612464976
C        -0.72015846577110    0.04543875421858    2.14533897243593
C         0.22906785516629    0.12722791785742    3.32608641063279
N         0.12265865419669   -0.70575274587911    4.31041029991371
O         1.20362432524317    1.03906717519313    3.37684301491633
C         1.73830601224178    1.82319762739432    2.29344409644794
C         3.09642763776258    1.40686746483700    1.70224032532550
C         2.97158134423743    0.13146819488858    0.83214240038001
C         4.30836251651178    1.21288634188188    2.65319656230357
N         3.96592869551621    0.42606667043647    3.72850252385721
N         5.39651294929481    1.64069307782745    2.10815519858149
C         6.72299252744426    1.47604960354206    2.72119604166766
C         7.81734251786813    2.46541928225653    2.28825003086571
N         7.97517310618488    2.44705057756963    0.83228168151828
H         2.28343387839753   -3.14386461973663    1.71368892704584
H         3.80149017846605   -2.33188979187850    1.63676492795890
H         2.90745885938384   -2.74556733115352    0.09965843067344
H         2.06621803570303   -0.91874555564167    2.37041012120403
H         0.23008634659139   -2.02031897146032    0.77392623908291
H         0.97875355909154   -1.07288475050667   -0.46611335552426
H        -1.31591643746640   -0.87443439737702    2.18508320859765
H        -1.35983723206268    0.92734008473110    2.18997738051625
H        -0.72047862430424   -1.29356510619859    4.22511188448541
H         1.85122660209320    2.84710805410472    2.67814222646590
H         0.98958241230341    1.83179226435120    1.49960664120546
H         3.42248374711610    2.24338412665826    1.05842895410534
H         3.96922102420085   -0.29876331284986    0.66893350322341
H         2.67609778985279    0.54194835021203   -0.14458139536700
H         2.99145134969896    0.52311704927802    4.01161338234179
H         4.68437316939962    0.30964642600956    4.43259297075172
H         7.25541142289419    0.54716451368793    2.48383841394458
H         6.65249837610373    1.59756196005640    3.80899318766796
H         8.75254105460533    2.31546042235662    2.83917885055645
H         7.52897179424184    3.51378502320115    2.41582000336143
H         7.19960326338445    3.00927069831509    0.47342958766402
H         8.07933081242037    1.52056082247103    0.42585193362239
