39
 energy: -54.525686587595 gnorm: 0.112414273740 xtb: 6.4.1 (79825abcba525fcdf90b791dcacef51065a7a4e7)
C         3.67474022463159   -1.37179799722145    0.13444149788096
C         2.66665206423272   -0.60894135372062    1.00009048362438
C         1.22822287784464   -1.02812942931379    0.66022614736295
O         0.13848405800758   -0.19147052324134    1.03584522040954
C        -0.35294362813172   -0.48403830446899    2.32826101970030
C         0.70227415132474   -0.51735273124302    3.41788948218918
N         1.08047294525431   -1.52059197213919    4.14214766756193
O         1.26152179706287    0.67614946692629    3.63371803697881
C         1.30547470592266    1.81597865439212    2.75431149234093
C         2.60401046041679    1.86249146798887    1.93030388817608
C         2.77020214028175    0.90837674870944    0.72144256112022
C         3.84819966839355    1.69785614987800    2.84442697743761
N         3.74478816899291    1.97304831309039    4.18837800912131
N         4.91754376575072    1.38308254313593    2.19513439197761
C         6.19415931971567    1.24932625642142    2.91265556327675
C         7.27956979605197    0.92464149665144    1.87325167947676
N         7.27179742544888    1.71143429513746    0.63794263954337
H         3.67351727355498   -2.44006846948445    0.37312675013116
H         4.67521001533428   -1.00482052066075    0.38815506558345
H         3.58462136802397   -1.05936070936917   -0.90392181401348
H         2.81848149870937   -0.88143120376271    2.05744312432034
H         1.01029915996123   -1.98899428359327    1.12097135128766
H         1.13532235300527   -1.20244115273811   -0.41921604365562
H        -0.96726975291884   -1.39000638187944    2.26118617667055
H        -0.89485381484467    0.44509170085846    2.50709685691318
H         0.60665719412241   -2.38709298349023    3.84490316848324
H         1.27054188050884    2.77788762155998    3.28595715944793
H         0.49742445548657    1.91867063235410    2.02812421774658
H         2.54779917471467    2.93518869597707    1.67198868971723
H         3.76900924633586    1.02595414649542    0.27919699083706
H         2.02026676773572    1.26282596651353   -0.00088461304939
H         2.84162784170329    1.78682584860028    4.62288836537223
H         4.50725938789019    1.68897737692535    4.79120537887877
H         6.24100393732138    0.56549607520157    3.76870340409972
H         6.37647445069715    2.24123553984531    3.34383358281131
H         7.13043958256891   -0.13750625731824    1.64917833717090
H         8.26950491110322    0.99753101782338    2.33500712265005
H         7.56964333314842    2.66662807901686    0.85070429382203
H         6.28802706627031    1.73563728041550    0.38098479917186
