39
 energy: -54.522433048454 gnorm: 0.099054071313 xtb: 6.4.1 (79825abcba525fcdf90b791dcacef51065a7a4e7)
C         3.14345059560030   -1.03752003988602   -0.67114839347215
C         2.48259935327507   -0.41455262298054    0.56284001616248
C         1.05362205561579   -0.97836448630870    0.54174494792532
O         0.03769689285137   -0.26158765148514    1.23654386980823
C        -0.26003691190112   -0.78927729592929    2.51338915739045
C         0.87181201039774   -0.63884961990479    3.51247579607849
N         1.38485074448454   -1.57720179943702    4.24073376101942
O         1.50650495997098    0.52706033967993    3.65946629504777
C         1.39014699027901    1.69709412827848    2.82761290631096
C         2.57970264379939    1.92922083336441    1.87976185084512
C         2.44169955039631    1.13106610887687    0.55945716419432
C         3.97389650070800    1.84552894954004    2.55795928039444
N         4.04373560022488    2.21806707836665    3.88044440925810
N         5.03217213945687    1.77600921168273    1.82353448638821
C         6.32281610465207    2.15167566427448    2.41984609207546
C         7.04486988148481    0.93847571428886    3.02868166795977
N         7.62328361790477    0.15717198090684    1.93319375311866
H         3.11322937370941   -2.13090647056470   -0.62911580869091
H         4.16656320180591   -0.72075336489607   -0.90110993175203
H         2.52394490985583   -0.87922070242930   -1.55154083940423
H         2.88993180372006   -0.88028084968461    1.47524069334616
H         1.05448799491073   -1.99241770488264    0.93510671329182
H         0.68067425592900   -0.94000111250870   -0.48958851987541
H        -0.56399782725886   -1.84268941895549    2.48880385835195
H        -1.12361800988380   -0.26684430270418    2.92596996022441
H         0.83668276643080   -2.45058918850534    4.22108701297891
H         1.35310295166967    2.55873669417354    3.50976839545681
H         0.50780586812208    1.67662856360641    2.18582313179237
H         2.39911798438590    2.99074557413102    1.63253683685209
H         3.24702446335136    1.44304596616714   -0.11961689378882
H         1.45815399850890    1.34752778166473    0.11721701115781
H         3.15116571266849    2.04237659559181    4.34047538523722
H         4.85724155450953    1.78884284150566    4.30404106880714
H         6.11398516054342    2.99272180828785    3.09190789759101
H         6.95902217399641    2.61033356984859    1.65309183940830
H         6.35274641356532    0.33636794133326    3.62787935631419
H         7.89657444434295    1.21951656381550    3.65646975610683
H         8.50938828762772    0.59489341321050    1.66938826857821
H         6.89648598650381    0.17988079390822    1.22209126457955
