39
 energy: -54.523536783675 gnorm: 0.104053859329 xtb: 6.4.1 (79825abcba525fcdf90b791dcacef51065a7a4e7)
C         2.84163353150621   -2.36014913762902    1.19756623620053
C         2.13097402995990   -1.00349282176090    1.24214077473704
C         0.82928704220140   -1.09314924433420    0.43104419040774
O         0.05008095570243    0.02602493303850    0.84202540396561
C        -0.52685559011456   -0.05944381998839    2.12937733252398
C         0.28358793228785    0.14008157091178    3.39636411937588
N         0.12961774126921   -0.51153136475464    4.50350773932392
O         1.27414057273404    1.03595696743622    3.39673862839357
C         1.69451120225895    1.88352106157100    2.31072667563196
C         3.00218494320325    1.41653395527527    1.64796010059562
C         2.92178830836977    0.20386970559768    0.68760489476212
C         4.18883169828421    1.22252400789664    2.63028501979728
N         4.01244208876418    0.61478423243947    3.85182836189871
N         5.29094716973427    1.67861182524755    2.13887328187889
C         6.59071463270312    1.34327215762409    2.73939514090811
C         7.66454144515473    2.35186181488533    2.29946399653942
N         7.90674632689658    2.39792662598271    0.85575122340211
H         2.13812421789607   -3.16896618761509    1.41906922949875
H         3.60164049547002   -2.51322829197385    1.97147775111001
H         3.39282461715135   -2.58735026736256    0.28734380808309
H         1.93523959104180   -0.80590358890647    2.30888537508191
H         0.23490173349881   -1.99855282936036    0.53098724382719
H         1.10018095760129   -1.01983982019986   -0.62982938832057
H        -0.99946313108459   -1.04756888354792    2.18345835676574
H        -1.29226221200019    0.71550946285930    2.17969220395918
H        -0.64367996679687   -1.19345060361785    4.52951670350982
H         1.91687100505142    2.84864374247740    2.78846155917736
H         0.93598136326596    1.95292272962025    1.52928268803938
H         3.28866140688986    2.31465815197138    1.07187852901407
H         3.94405302518561   -0.11330998366290    0.43982852883242
H         2.48185319121284    0.62747238844890   -0.22716924698936
H         3.11534781319296    0.19133175859526    4.08653349433229
H         4.86503891377672    0.15316950143643    4.14414668272901
H         6.99549473851141    0.35604675289586    2.48606707306529
H         6.55450669908826    1.50252697272989    3.82399839022785
H         8.62970491732339    2.16176129806688    2.78208993779246
H         7.35654854529658    3.38530404053667    2.48824970670496
H         7.20999777339922    2.91278710258858    0.31184405004479
H         8.27288550076272    1.56724138127728    0.39714315091496
