39
 energy: -54.527614655328 gnorm: 0.097358983970 xtb: 6.4.1 (79825abcba525fcdf90b791dcacef51065a7a4e7)
C         3.04970056889264   -1.10895431580199   -0.61422737039270
C         2.33404018801343   -0.51773452200986    0.60471871543944
C         0.89767901884280   -1.05138836761566    0.49343029796693
O        -0.03899654097534   -0.25468679724816    1.21212635596843
C        -0.19304085922442   -0.58029035613036    2.57876030739535
C         1.02719328670947   -0.47453326522505    3.47415335055691
N         1.56417203915242   -1.48431980655169    4.07918079997106
O         1.52468735546978    0.73422279034413    3.74837202019018
C         1.32577842611880    1.74696729841982    2.74374166674592
C         2.55855051987465    1.77828507083588    1.82361163583495
C         2.47936392106261    1.01630590179971    0.47735106091542
C         3.89571634478746    1.62688922090852    2.59807884942410
N         3.88287286931792    1.67784644262777    3.97280335526918
N         4.96068011115693    1.82642039833995    1.89793630587787
C         6.25246949818211    2.24212040234952    2.46445932174462
C         7.17363212718033    1.12923945979663    2.99062653567703
N         7.78216463434807    0.26905261599402    1.97334657459842
H         3.05300278107405   -2.20014767978799   -0.70059917791799
H         4.08636297349564   -0.75609676064911   -0.64260788039633
H         2.58342562653966   -0.81707672783951   -1.55302020718624
H         2.80830211646125   -0.85488172909425    1.54104392432889
H         0.90643846147900   -2.06132049049347    0.89716107538470
H         0.60736425277456   -0.94600215247918   -0.55957569301465
H        -0.60761127547938   -1.58459895771401    2.72765421461247
H        -0.92223627797102    0.11325831387456    2.99851709801792
H         1.01156362336500   -2.32000441180251    3.83436485461387
H         1.35803584763965    2.72073015058092    3.25352756698334
H         0.44906952881063    1.57200092811909    2.11795647963903
H         2.61111320284903    2.85273809907396    1.57191008293741
H         3.38146814093331    1.29545676763107   -0.08416830642078
H         1.64948040937331    1.40279617548089   -0.13233122413016
H         3.06727193771799    1.36840960234537    4.50026955992913
H         4.76919249996221    1.60570194693985    4.45725374731306
H         6.06807657130105    2.95214357134978    3.27962948326607
H         6.85427278856684    2.80964367172880    1.74419030886835
H         6.61480958280137    0.44785991777552    3.64181453743532
H         8.01979810315831    1.57367047534922    3.52446800553293
H         8.50886013638940    0.74353747106270    1.43191085431102
H         6.99618481320495   -0.01513653479371    1.39378684301755
