39
 energy: -54.519935648883 gnorm: 0.109121888589 xtb: 6.4.1 (79825abcba525fcdf90b791dcacef51065a7a4e7)
C         3.21224437194739   -2.27688338046400    1.29896030568872
C         2.25537231959283   -1.10286127688069    1.53049469305431
C         0.80303466680114   -1.48741947751496    1.20934784441658
O        -0.08963873646399   -0.39689299349324    1.00318114958387
C        -0.56336511256483    0.23704518368165    2.17413861639920
C         0.43906495804070    0.39821415624190    3.30154410140758
N         0.31123502604395   -0.12927042518127    4.47606219923492
O         1.31840420099397    1.39626741415939    3.18137924211845
C         1.80769297976260    1.95382597868154    1.94678487612202
C         2.97297550733486    1.30505611608269    1.17960732908168
C         2.65404878341829   -0.03999549610185    0.48073520958816
C         4.25228777979296    1.06862431486700    2.02706986017172
N         4.08738299149481    0.90807002779431    3.38340971084334
N         5.32205924982090    1.07006932820553    1.30613504169098
C         6.65767017782247    0.96103046150007    1.91171627277087
C         6.92020873646359    2.13961681891796    2.86350628712383
N         7.94286397712148    3.05120630726677    2.34555589747673
H         2.99292115483889   -3.04366324993205    2.04870687235668
H         4.26275792056496   -1.97298582988677    1.36260316653985
H         3.00035200470152   -2.70145081322805    0.31978669390643
H         2.43564341384075   -0.69758873457375    2.53972906740470
H         0.38571140677771   -2.19412677864961    1.92310147981694
H         0.81574170054965   -2.04785898903389    0.26597272088960
H        -1.45710719319184   -0.27181760765982    2.55487151502088
H        -0.94184596429328    1.17992198818691    1.77832673119850
H        -0.34622444322317   -0.92387236797852    4.47019175126299
H         2.17015989553391    2.97456423025334    2.13611909370552
H         0.90459064012124    1.99693409073982    1.33573114006718
H         3.19494408810500    2.08119114105874    0.42534598221982
H         3.63011457898925   -0.35765522203066    0.08906046542253
H         1.85828085558947   -0.05978690500456   -0.27831391411774
H         3.14827012405599    0.79764832557581    3.76426493750693
H         4.88641059853162    0.66473715549463    3.95595096882265
H         7.29219173835502    0.81666679907209    1.02900591733293
H         6.76050528323097    0.03326516136578    2.48766228166913
H         7.35067853011773    1.95981912855884    3.85495728403079
H         6.00723599571073    2.67552724786393    3.14240284491865
H         7.76180620182304    3.22624865393714    1.35411596994828
H         8.79977796302679    2.50362131642754    2.36187565473588
