39
 energy: -54.517398486154 gnorm: 0.107991190302 xtb: 6.4.1 (79825abcba525fcdf90b791dcacef51065a7a4e7)
C         3.23116496660158   -1.96770028110510    0.81479823194591
C         2.24418888590907   -0.88504943298283    1.26344679829088
C         0.84113765409959   -1.14310585526315    0.69321957903473
O        -0.06844243894025   -0.11573438121879    1.07504471186776
C        -0.58016010695709   -0.21840869450951    2.38845199679943
C         0.44599209300694   -0.33826126598215    3.49954678763753
N         0.41806952557767   -1.39101594536233    4.25121237043613
O         1.33955122700873    0.63568994594248    3.69127186984156
C         1.56688212391854    1.71124093903820    2.76067580562574
C         2.73680068768493    1.58928511068842    1.76882681897838
C         2.61656712122990    0.49653056279376    0.67762028913127
C         4.09547683805275    1.49239378797647    2.51404074918817
N         4.04933538251004    1.22505590959860    3.86275513110169
N         5.15812628408217    1.75862372441692    1.83282281825905
C         6.44381825162958    1.75401000789000    2.54658015636828
C         7.46708086253805    1.39195507132256    1.45766032892345
N         8.38453101176403    2.45500180296345    1.04135681520278
H         3.08944368445330   -2.91794010177092    1.33932974897576
H         4.23938489993069   -1.67036960238323    1.12313227306889
H         3.06724883211651   -2.10440754490456   -0.25215043766755
H         2.14150242529363   -0.87854868699498    2.36103995829175
H         0.31374191331826   -2.02626556365487    1.04666098211521
H         0.80995510428207   -1.03831708213307   -0.39868586440331
H        -1.27981184399662   -1.05680006273392    2.48974932473403
H        -1.14536072134901    0.70779596887402    2.49626971349211
H        -0.37364949800950   -2.00816032459417    4.01458298740566
H         1.83704849542555    2.52245134160640    3.45211206753867
H         0.64572553759817    1.98978034005079    2.24616132706953
H         2.92654103395230    2.53465805683123    1.22953617514274
H         3.48490377919415    0.40343701197611    0.01102726210869
H         1.89227907928026    0.83385363493185   -0.07829891325286
H         3.18331588569695    1.09276163712606    4.38398932709470
H         4.86813105929495    1.53390064250279    4.37231187249885
H         6.52092923645484    0.96030966119485    3.29939467832112
H         6.56876135000828    2.72283796710840    3.04537763808933
H         6.90794236836295    1.00808694426662    0.59706986773553
H         8.07892802530237    0.68135060040003    2.02262656088268
H         8.73338892162795    2.97843744809378    1.84800925307211
H         7.92746457160474    3.09109321151224    0.39259243191591
