39
 energy: -54.517381829723 gnorm: 0.116095924722 xtb: 6.4.1 (79825abcba525fcdf90b791dcacef51065a7a4e7)
C         2.93265283199527   -2.37333003078968    0.77905410531779
C         2.24592272139017   -1.07858720184828    1.22580116181283
C         0.77239029312527   -1.27948653183820    0.84025406648581
O        -0.14560473419260   -0.19065564758049    0.82152071937649
C        -0.54083610394186    0.24491830777130    2.10662895246531
C         0.39223698898663    0.13002642831846    3.29745181028897
N         0.08676627413397   -0.49647334499995    4.38752470856942
O         1.41112480902650    0.98876813242725    3.38810341506590
C         1.79227827916120    1.78696961499817    2.25139995608548
C         3.12520308546400    1.39513072211301    1.59024880676853
C         3.01592333946762    0.14628386508092    0.68044676111860
C         4.34340206226100    1.29165901616498    2.54733682285205
N         4.11742881351992    1.60482242499696    3.86775109146933
N         5.48366257761011    1.00397815191472    2.01704843439778
C         6.74249674585321    0.97745920234269    2.77672463774844
C         7.53939102582404    2.26048821578169    2.48916144644435
N         7.37881705186229    2.58540260956321    1.07009894582116
H         2.32502756376525   -3.22467101311310    1.10182959400942
H         3.93854274058682   -2.38830973403924    1.21257912908503
H         2.84209186644131   -2.41643776506993   -0.30440206429888
H         2.33771259719603   -1.05795747964128    2.32418476460301
H         0.32956748543918   -2.01266452356145    1.51062422467158
H         0.80167163389952   -1.58148498573368   -0.21433119167734
H        -1.37773040509069   -0.36448611211536    2.46844102458329
H        -0.96378758611195    1.22153026176296    1.86941047600259
H        -0.77371488169262   -1.04020655272381    4.22137403638285
H         1.91961493867930    2.82210532877743    2.59984754145926
H         0.98033518959905    1.79481326080875    1.52234185749132
H         3.29830690211555    2.33256326262384    1.03183936401500
H         3.99282508474070   -0.19080308050531    0.30754383473639
H         2.46910576860864    0.41369150547502   -0.23567416979474
H         3.29278007228269    1.13735315024295    4.24272252810593
H         4.92563761618874    1.28445304817031    4.38700200096144
H         7.26884587613809    0.17742975618400    2.24236003194198
H         6.55941412328741    0.61914460067065    3.79708178832349
H         8.60157340802875    2.23163384769045    2.75663582963871
H         7.09343290327564    3.01771861223732    3.14202129811511
H         6.37999231559561    2.56860702820650    0.85000367951303
H         7.76266377067776    1.77212075947483    0.59507098340118
