39
 energy: -54.528189629915 gnorm: 0.106744734220 xtb: 6.4.1 (79825abcba525fcdf90b791dcacef51065a7a4e7)
C         2.87046350098095   -2.56165186478607    1.30431628281302
C         2.08551347105938   -1.24729347918819    1.36641010087016
C         0.62460909146926   -1.42537416649165    0.92555797501584
O        -0.00232280018280   -0.14779204958773    0.86760236221975
C        -0.53533539905608    0.31427281261303    2.09227754803841
C         0.40360864665261    0.51175720438704    3.26755138994598
N         0.29116030968467   -0.08708445865848    4.40896160275297
O         1.56378956931931    1.16748141780740    3.17927121676267
C         2.01887710371943    1.93037280724904    2.04552063263319
C         3.14475661021264    1.18882886595020    1.30399854737190
C         2.70574945199599   -0.09055084961201    0.54917371083167
C         4.40937954080329    1.02099597575172    2.18903726956436
N         4.17250451824731    0.52193854912896    3.44898208403122
N         5.52619928436706    1.20581511588799    1.57039714081308
C         6.79208017758970    0.97077006722470    2.28087165077018
C         7.30174952217368    2.30215587327637    2.85667154652971
N         7.36145128827901    3.41565659767634    1.90712240245282
H         2.36199230213788   -3.33456491533495    1.88932602974296
H         3.81309098178581   -2.36550202352322    1.82677347366417
H         2.93559625045101   -2.84180572075588    0.25493152179036
H         2.06935775286870   -1.03261948969906    2.44759074141076
H         0.17604177408361   -1.96024916824828    1.75966483585693
H         0.47702712081370   -1.98513300143844   -0.00669742640666
H        -1.46337236972944   -0.22728378921273    2.31168040051033
H        -0.87324215128513    1.33287664012267    1.89941296710521
H        -0.48431137310332   -0.69776889864660    4.70793959778913
H         2.40728320704940    2.90343717108346    2.37932105847205
H         1.17507222879197    2.02453948460587    1.35998085685798
H         3.42789847954257    1.87254928905708    0.48367979126745
H         3.56733131992896   -0.46017577056510   -0.02360488695219
H         1.92634007742403    0.25589658917847   -0.14529663419424
H         3.23927480667635    0.65099811150705    3.83834381955988
H         4.93885506662924    0.24809905045649    4.05162480815354
H         7.51866310646284    0.46669408833457    1.63231888112324
H         6.63286693169700    0.26452812548512    3.10483207278343
H         8.32158115732390    2.19107800344366    3.24165424138926
H         6.55003728005272    2.52959066373061    3.61936717736999
H         6.51659583982915    3.49136419760877    1.33540350214594
H         8.20974400585278    3.41095440924768    1.34605681853878
