39
 energy: -54.519973181906 gnorm: 0.122097847526 xtb: 6.4.1 (79825abcba525fcdf90b791dcacef51065a7a4e7)
C         3.26640365289997   -1.42741757526695    0.16237739863147
C         2.27072183729007   -0.55772904439442    0.93684481144412
C         0.83114544429652   -0.95986037858912    0.58157708176945
O        -0.14206718852795   -0.12013592715879    1.19504146116344
C        -0.47096649585840   -0.35727494306861    2.54893437911295
C         0.77866261801009   -0.51154523940703    3.39540493860798
N         1.22526840061165   -1.57430856128086    3.98290018035377
O         1.30299063832580    0.66611803995571    3.74465665951154
C         1.34552821500174    1.69640744138271    2.73907591276545
C         2.63189362020325    1.78637925885861    1.89972127176647
C         2.58356250642532    0.92192464978026    0.61532154081441
C         4.05479777169463    1.61620502904836    2.49731404520292
N         4.14665084440939    0.75256884552380    3.56423700771772
N         4.97504128296334    2.27457080242908    1.87774445224409
C         6.28744082667229    2.42130594089473    2.52469953920575
C         7.21384251288189    1.19819592739481    2.62307804261011
N         8.08103545110470    1.02121962175940    1.45613865529067
H         2.93732978511400   -2.46911716292345    0.23127089403469
H         4.26951096748134   -1.16825324990782    0.51817568257516
H         3.19829488944129   -1.09696715424288   -0.87207924971621
H         2.45127155414652   -0.78535841687226    2.00027519912719
H         0.62169060244520   -1.98211833025406    0.88842478896021
H         0.60720043426714   -0.78925115159522   -0.47906030250830
H        -0.92801064317977   -1.35412008027659    2.53975720407787
H        -1.12681498334523    0.40672057763140    2.96738997814976
H         0.75659343666027   -2.44290951498655    3.68364138176758
H         1.35724794922777    2.53432613474764    3.45103883893948
H         0.52140308387890    1.60107885917984    2.03015486740962
H         2.72278543192284    2.84932048244178    1.61256200360987
H         3.48617950284817    1.00828482163841   -0.00503780045155
H         1.69869589137918    1.24890163086041    0.04973246277172
H         3.31048908330858    0.36042317101996    3.99578296270936
H         4.98739461595755    0.78801771968925    4.12757774225388
H         6.06814950547618    2.75566962412340    3.54585001324996
H         6.80979646382852    3.22561665818767    1.99247197883756
H         6.72746022141311    0.23109065358967    2.79262504248011
H         7.83560140788310    1.50667650635691    3.46969372467744
H         8.35681051114494    1.94869296610607    1.12430107114298
H         7.69458931941058    0.55308704569954    0.64009422487613
