39
 energy: -54.527471303308 gnorm: 0.124182510885 xtb: 6.4.1 (79825abcba525fcdf90b791dcacef51065a7a4e7)
C         3.81675432245923   -0.73029813623025   -0.12142781386579
C         2.71617819293403   -0.26898613642502    0.83954232371338
C         1.45795347449040   -1.11936187588456    0.60708454901489
O         0.33387053412092   -0.49410411517082    1.21872889162053
C         0.18736210558003   -0.92248861112257    2.55755587620919
C         1.19757750567825   -0.28612322117173    3.49371215046537
N         2.01804092418412   -0.83917748064978    4.32740515175040
O         1.23671214878311    1.02679998451745    3.73555624529358
C         1.05015681236646    1.92749077109060    2.62720090623713
C         2.35806748264504    2.11052065182988    1.83776005109945
C         2.33292787617356    1.20632900466629    0.58033975352751
C         3.63867255205734    1.87322731014798    2.68302637262528
N         3.49025025651748    2.21747653621906    4.00669262800216
N         4.71566141873488    1.56126738587127    2.04511095411561
C         5.87774605383658    1.21102155393331    2.87538910913769
C         6.74889124560656    0.12155139994474    2.22881555044341
N         7.15558413938095    0.40211254125578    0.85005593502174
H         4.02327127409418   -1.80144420142800   -0.03103529508405
H         4.74346250922205   -0.20089348196972    0.12540309405774
H         3.61585823376222   -0.48819354974012   -1.16304337067114
H         3.09388176079030   -0.36859546005470    1.87042326413708
H         1.62535006832428   -2.13697574411871    0.95274125568718
H         1.18898541837545   -1.17533300195284   -0.45533436674919
H         0.27211590346133   -2.00212045946767    2.73043057032071
H        -0.77240879376430   -0.66149772572258    3.00438364815023
H         1.96618169038342   -1.86678091554447    4.39826745033239
H         0.85713085872457    2.88110336781596    3.13954873489806
H         0.24668994337093    1.69222517092838    1.92725097577018
H         2.35714840498901    3.12831104879568    1.40803029136529
H         3.12435156244685    1.64833817974902   -0.04038375996825
H         1.44414920872742    1.32715268126326   -0.05626686357959
H         2.53262842411178    2.32775749257854    4.33831767903116
H         4.22382620719260    1.87651793071633    4.61585028869176
H         5.50302317970655    0.78277649559767    3.81284576731989
H         6.47244062633217    2.06171423753832    3.22992773736440
H         6.20291512071904   -0.82814156607927    2.25330789061111
H         7.63472274996814    0.00231234392134    2.86094456969685
H         7.88141444897136    1.11949903734425    0.78004274234675
H         6.38997170602098    0.74008377688929    0.27210240696049
