39
 energy: -54.524872621634 gnorm: 0.109592616924 xtb: 6.4.1 (79825abcba525fcdf90b791dcacef51065a7a4e7)
C         3.67941813253872   -1.03615828838788    0.21388522678269
C         2.53131613003010   -0.28583618212884    0.89683377064317
C         1.16202215993544   -0.80326194098994    0.43034737002604
O         0.08279188298143   -0.12686733941003    1.06781962498830
C        -0.27986362238804   -0.70083370595786    2.30736764200401
C         0.85088159994388   -0.65855193167646    3.31806647389617
N         1.11906209965908   -1.62113742419617    4.14000421113931
O         1.60075464404360    0.42720616989127    3.52448156152734
C         1.28714640023965    1.66154036621286    2.85175033361293
C         2.50427888384420    2.01475454213449    1.97929668580882
C         2.60433635931128    1.23762104143371    0.64312590741150
C         3.85506385854911    1.86026043875364    2.72912607354083
N         4.02131003447322    1.34645298580134    3.99442965175356
N         4.92056982031598    2.13560729150657    2.05604269738013
C         6.31974838411958    2.19999908026778    2.50395749964509
C         6.90005770481328    0.77628165632423    2.51685356467253
N         7.23450507434771    0.29329669379395    1.17522685727521
H         3.53701988177196   -2.12139911724015    0.22609316618365
H         4.57691643105389   -0.71448497112368    0.75333488242172
H         3.76567741145225   -0.60799393815627   -0.78269465801359
H         2.79201006605878   -0.43938832639427    1.95690826319125
H         1.07095243653199   -1.87739716065664    0.57518520546638
H         1.07149915744203   -0.56522946970431   -0.63705914355087
H        -0.65362065899275   -1.73181371622987    2.29964176392391
H        -1.10597271742235   -0.12645036735898    2.72755691135269
H         0.58268944480550   -2.48812381550433    3.98405987033252
H         1.18582819207388    2.44409058533905    3.61757411614384
H         0.41403117642938    1.67100114327713    2.19721300257879
H         2.49997311411236    3.08582865699037    1.70846924583527
H         3.56908475570153    1.51901495596637    0.19916731420076
H         1.83477533863615    1.58351083342154   -0.06251560997163
H         3.27018788874846    1.29153152347654    4.68143458533711
H         4.96432768150971    1.48854879175249    4.33499682190218
H         6.45542222746421    2.72525164646793    3.45702537967943
H         6.79541175814191    2.76974808907294    1.69638847050009
H         6.17173521639364    0.08832801607518    2.96055692648591
H         7.75044398290217    0.67631989652439    3.19902167040144
H         7.49035727315437    1.02964083662992    0.51287360888930
H         6.33453547370692    0.01290842738196    0.79331800231714
