39
 energy: -54.523892345248 gnorm: 0.126897267331 xtb: 6.4.1 (79825abcba525fcdf90b791dcacef51065a7a4e7)
C         3.51305327058543   -1.81006508308507    0.66953187592114
C         2.54443935692248   -0.79529481807056    1.28562324650061
C         1.13117647115019   -1.27440906129943    0.92032540994987
O         0.15553901385137   -0.23863213091082    0.85774569584318
C        -0.57108750267416   -0.01956433955864    2.04999520529356
C         0.29307041398964    0.07330802896186    3.29357489260126
N         0.36719100895547   -0.83437713887401    4.21264345160149
O         1.20552653129045    1.03581534803417    3.45102618510729
C         1.52429720766516    1.93645106268356    2.37318626515319
C         2.90627302311097    1.79301392184126    1.71219023830021
C         2.80045700365829    0.61670070756282    0.70999737860767
C         3.98822637357937    1.43577206973885    2.76693561777978
N         3.85225499831454    0.80367247811088    3.98126297611720
N         5.13761733615488    1.73810283646185    2.26528173766167
C         6.42327113763707    1.67750530497654    2.97654602092453
C         7.56103918635532    1.89907374838224    1.96645304729676
N         7.49741526251408    1.03859111665992    0.78297792060746
H         3.29938812625281   -2.82325349987218    1.02445495241046
H         4.53794434993966   -1.53477416461070    0.94118612991099
H         3.36575667830130   -1.77611719745490   -0.40800610192318
H         2.60265490244031   -0.72995595764495    2.38454967637370
H         0.88978158552656   -2.04832196531349    1.64546366490650
H         1.05631226087912   -1.69823103752105   -0.08912038645478
H        -1.18676895904890   -0.90499570648525    2.24904653855956
H        -1.06154043785630    0.95411092520645    2.06853899610978
H        -0.25286547542904   -1.64823322695664    4.08284404190101
H         1.51777975692981    2.94898373246044    2.80198855920123
H         0.77965540738595    1.79630950511610    1.58787883808354
H         3.20667400214723    2.69866017515690    1.15529715466283
H         3.74220685475381    0.59118817743210    0.14477391326008
H         1.96193790978994    0.96030530061425    0.08660706018645
H         2.87211747640874    0.71300554861204    4.24637914539557
H         4.47164432364598    1.14736013474106    4.70493082722406
H         6.68341150352375    0.69289024699678    3.38335828600144
H         6.46879457827195    2.45472040503483    3.74914010282170
H         8.56805923145435    1.82176705542056    2.39135401738781
H         7.51470382228868    2.93106819521344    1.60404030133076
H         6.71307900150856    1.24191166062793    0.15859642203986
H         7.35525491504241    0.06749360748912    1.04976865856578
