39
 energy: -54.522610792820 gnorm: 0.106465048227 xtb: 6.4.1 (79825abcba525fcdf90b791dcacef51065a7a4e7)
C         2.98770332982145   -2.49277751583784    1.00084783705585
C         2.25872298451922   -1.21402114998630    1.42618297454584
C         0.75509583789766   -1.48720403807342    1.26876178370420
O        -0.08546445527846   -0.35722791624047    1.05608630897786
C        -0.54098946052938    0.35612744706222    2.18792409207274
C         0.56041402885732    0.61171938628507    3.19958989872602
N         0.57115858667743    0.09482444386814    4.38566637195320
O         1.51055597347253    1.53108246719137    3.01040956488385
C         1.95499616761983    2.07119617060351    1.75134308145697
C         3.17173722903487    1.27350699718720    1.25076318938494
C         2.81497888008142   -0.06383553892292    0.55539371463426
C         4.35742538005028    1.01220112784231    2.21854179205987
N         4.07589130870663    0.84982287251199    3.55532931958240
N         5.45255312864089    0.80123270785817    1.57019959628847
C         6.76023389411482    0.68409947579644    2.23256312834512
C         7.36398143553880    1.97755857475508    2.80383274562732
N         6.78831911263583    3.22331783052861    2.29218002964803
H         2.61155905334007   -3.30999106374393    1.62442738349038
H         4.07421960228987   -2.39352713063532    1.09890187772279
H         2.83754113861260   -2.74626544895053   -0.04659286146282
H         2.56815988667284   -1.19590031478535    2.48411394402258
H         0.44045593378303   -2.24715498885556    1.98046005622987
H         0.66418370071217   -1.93929417477985    0.27299071425719
H        -1.29680032921439   -0.30904495130925    2.62263019175609
H        -0.96558435900576    1.28011017607516    1.79434239504401
H        -0.28357427294277   -0.44876614646373    4.57962685756128
H         2.15216744912576    3.11819076347770    2.02348656751664
H         1.15474048263844    1.97086465804650    1.01624905360677
H         3.67266623679726    1.90854878273555    0.49819568173842
H         3.71364639316072   -0.42034009284459    0.03354850202502
H         2.12457712302990    0.22365084803199   -0.25113641437895
H         3.13239824438072    1.15559186181090    3.79091963787328
H         4.73463181860411    1.29197220132319    4.18463402057827
H         7.50040526470063    0.43853059179045    1.46153893570230
H         6.66939992669924   -0.03644380144895    3.05451439607075
H         8.42777149844277    2.10786540888241    2.57584730918200
H         7.17085690667898    1.98523906580868    3.88139779054691
H         5.78775993514976    3.28112694051208    2.49690987246546
H         6.85046017950340    3.26863127384678    1.27802894931822
