39
 energy: -54.523644257839 gnorm: 0.111261475276 xtb: 6.4.1 (79825abcba525fcdf90b791dcacef51065a7a4e7)
C         3.47875452135608   -1.61562100287968    0.39398784640215
C         2.50878367603844   -0.60675475489363    1.01759480709807
C         1.09477844128935   -1.10687832084081    0.68477266307074
O        -0.00553784892657   -0.32989769647860    1.14761572108467
C        -0.23820029388516   -0.49648281249504    2.53165086530314
C         0.98031825890812   -0.15373820478221    3.36808574744171
N         1.57148290789796   -1.07715417103114    4.05503594270575
O         1.49740798333304    1.07348682299507    3.46969469765376
C         1.34165034255385    2.02483428568903    2.39956577341208
C         2.59859595243915    1.95619756293946    1.51484894365784
C         2.56021626861921    0.83095502455253    0.45105545942106
C         3.89600119178931    1.79970404836637    2.35328920320553
N         4.05733932688026    2.83360399913229    3.24640172248950
N         4.63789403496385    0.74946669276583    2.24957514672610
C         5.78865055670159    0.61435000062459    3.15510127063093
C         7.03594389252539    1.36611988103572    2.66215309144798
N         7.65636266985410    0.89464117505965    1.42204014841895
H         3.40875342336434   -2.54231686498002    0.97235501347453
H         4.48749619954868   -1.18858165440709    0.38621154287152
H         3.09676399754246   -1.80991603623040   -0.60614690478116
H         2.72903827309011   -0.54801111664841    2.09617471518852
H         1.04211227992791   -2.14938447146091    0.99046101306497
H         1.07107020044452   -0.98690891963035   -0.40575739229845
H        -0.51207409280583   -1.51836311275325    2.82048921030319
H        -1.00929116684277    0.23124596550394    2.78613303029182
H         1.01838255069703   -1.94453036694435    3.98142753273355
H         1.21209927985403    3.06020239186096    2.74650338176171
H         0.41009239873419    1.72215880816949    1.91849802750024
H         2.74127257783683    2.91464169307081    0.98419459194744
H         3.51181497381576    0.92171467438735   -0.09046447023036
H         1.71621473016961    0.94481007557502   -0.24499935369175
H         3.33919268187208    3.50405875500573    3.51830694770068
H         4.74867969676040    2.74067340712790    3.98048066891061
H         5.93870575859362   -0.47189642378984    3.16881949732658
H         5.56060612545679    0.73577270222601    4.22107011626376
H         7.76493041075040    1.23065848292696    3.46889679286751
H         6.91795105174706    2.44733859316170    2.53746833911096
H         7.18089554183263    1.36754928844068    0.64959999072074
H         7.67522192070156   -0.12085566665275    1.36886376263303
