39
 energy: -54.518647938034 gnorm: 0.111772537681 xtb: 6.4.1 (79825abcba525fcdf90b791dcacef51065a7a4e7)
C         3.35060908129697   -0.91887266688558   -0.39136581692888
C         2.40155220922416   -0.26135442802090    0.61585858898201
C         1.01342004558463   -0.87746536067983    0.38390738508697
O         0.05959654260414   -0.28331830519050    1.25902367498713
C        -0.09759362531987   -0.75729496028225    2.58117081799823
C         1.17406749005813   -0.55492126190020    3.38354698565458
N         1.65586893411770   -1.44952804613762    4.18455841621066
O         1.71391345957590    0.66621508428221    3.41789465744324
C         1.35095133592596    1.82739485955973    2.64690934203109
C         2.48334154609355    2.17318284409971    1.66432591742810
C         2.49429673983292    1.26789472676890    0.40749110805211
C         3.86894234574104    2.00142055888914    2.34354662079676
N         3.98674974625740    2.53555366859727    3.60586682182022
N         4.83595458304825    1.59997111894296    1.58996466713715
C         6.25728417632368    1.51707090641175    1.95796517079755
C         6.64562593853700    0.16143544275304    2.57061489174094
N         7.26115324262305    0.30885778667569    3.89140424955710
H         3.23175753871757   -2.00683533665650   -0.37173183662540
H         4.36495306255742   -0.54361984844223   -0.21737024642600
H         2.91871374937357   -0.50661806900207   -1.30100828031973
H         2.69550059136709   -0.49193921452886    1.65302902797948
H         0.93059347693160   -1.95272232867943    0.52533005493288
H         0.59414356332883   -0.55713817713842   -0.57828192070744
H        -0.37238731380911   -1.81702301925311    2.51683841830955
H        -0.88102137801812   -0.11822637526354    2.98953802558337
H         1.29193602976380   -2.40132844467905    4.02547194595459
H         1.00896560292463    2.53547132278429    3.41555084386646
H         0.50018736700163    1.54418237254464    2.02495260970728
H         2.47443263733096    3.19255895451684    1.23846352972957
H         3.35559566089651    1.49418229695714   -0.23592115098239
H         1.66786910284792    1.52101286638505   -0.27276063993473
H         3.19787406239331    2.75412701600599    4.21338429139719
H         4.86561951699108    2.52098760667282    4.10869407565112
H         6.55329340669833    2.30941584130979    2.65596522586034
H         6.90488142869363    1.68834235055064    1.08944850374653
H         7.24253588678544   -0.45315804228231    1.88754835773514
H         5.67015468397941   -0.33127183384408    2.63540589607206
H         8.18894531236031    0.72204546683556    3.76953265072250
H         7.47017104486158   -0.59903556202468    4.29939746051008
