39
 energy: -54.521684469850 gnorm: 0.110111268142 xtb: 6.4.1 (79825abcba525fcdf90b791dcacef51065a7a4e7)
C         2.83883199311016   -2.50038796261372    0.67864126752954
C         2.17102005052595   -1.26068392834285    1.28254631375108
C         0.66961353234995   -1.26339108912052    0.95685305874222
O         0.08287579449623    0.03028615638636    0.85313934190523
C        -0.50619152414686    0.38647789370272    2.08746621212412
C         0.36403449405381    0.32959612414574    3.32897970438959
N         0.19309091766628   -0.51302932832043    4.29584778056137
O         1.39906147183241    1.16216600641788    3.46802627553731
C         2.01228946925462    1.83186056815042    2.35001065623506
C         3.12955374507489    1.14167611442548    1.54831679916727
C         2.79063260186582   -0.02581679139866    0.58842458149936
C         4.36030300606914    0.89951152800233    2.46338247266703
N         4.02847872195307    0.23961247271086    3.62400943747164
N         5.43359147402287    1.55293964502275    2.17141731914941
C         6.54600880035912    1.74417141405746    3.11398442523176
C         7.51727339412733    2.65097549950498    2.34051951007895
N         7.72988347098251    2.42538990267750    0.90908671840075
H         2.31335643747915   -3.42045795718845    0.95345138197543
H         3.87207898335455   -2.49347998358200    1.04242112904802
H         2.87220744072927   -2.40163016374000   -0.40444220874192
H         2.37577952184557   -1.24716162371235    2.36568444956874
H         0.24635820647570   -1.81011250268765    1.79648916544054
H         0.44039695661969   -1.75332205865163    0.00205572882210
H        -1.41348166003954   -0.20721175484889    2.25187727854692
H        -0.92858133244092    1.38543321729889    1.97518717694941
H        -0.63020202784876   -1.13309524325646    4.25861007033030
H         2.42050005207605    2.73248256765949    2.83103084291623
H         1.24852323031843    2.22445702976632    1.67668461378904
H         3.51557890977964    1.94380653412681    0.89399487870752
H         3.77009453908778   -0.28447067034306    0.16324965533528
H         2.11793550613073    0.24536896424023   -0.23845555562344
H         3.04057472006281    0.32057158258098    3.86205974500286
H         4.66055958145354    0.29357019661889    4.41332677123763
H         7.01766098723263    0.76176545871369    3.23669872655435
H         6.36896429370696    2.22592673955488    4.08331634035847
H         8.43037383255840    2.81604116170062    2.92327799437277
H         6.93595421602578    3.56808400525997    2.48009927172839
H         6.77303153538624    2.46100180976478    0.54916862064874
H         7.98011081647633    1.48926561585872    0.60009670208305
