39
 energy: -54.520043915963 gnorm: 0.112249876511 xtb: 6.4.1 (79825abcba525fcdf90b791dcacef51065a7a4e7)
C         2.96320790517333   -0.29149350267805   -1.06268577152630
C         2.21481143905611    0.02489821560222    0.23629043289472
C         0.81225662876650   -0.60204086109701    0.22668163966970
O         0.09861096101338   -0.44257409266428    1.44893313469717
C         0.50953503169381   -1.19971348715578    2.56934243953216
C         1.70156924501738   -0.69740096249497    3.36219875864579
N         2.61791089701606   -1.42661484695583    3.91232447480319
O         1.80734183304018    0.62336324225988    3.53007208405473
C         1.46813864047672    1.75739403295672    2.70945422971438
C         2.58022529321296    2.16470857324990    1.72726013816002
C         2.22950916715114    1.56738766832090    0.34179767946099
C         3.97315176029893    1.79353358297364    2.30407689313676
N         4.49307054304846    2.75321526266019    3.14152812345866
N         4.54870276341111    0.77340185296022    1.76349170127228
C         5.86904186618575    0.22920817101148    2.11425160525000
C         6.10144206541755    0.07187769551230    3.62591750176724
N         6.71511509644976    1.31660401303730    4.09405588479837
H         2.99709452258515   -1.34278644478260   -1.36568543212741
H         3.99332807169154    0.04210036075335   -0.89670256898668
H         2.60421244329274    0.29994577455700   -1.90248257680452
H         2.62229990447533   -0.46132355419996    1.13786630209772
H         0.88111330928570   -1.66288223357542   -0.00334552219948
H         0.15054865958796   -0.02221221808765   -0.42917797747572
H         0.85572189033214   -2.18910404341041    2.24695328357778
H        -0.39194503155088   -1.13419835435418    3.17923827418969
H         2.44817989814049   -2.40896145134882    3.64800232532823
H         1.31207721960570    2.57762876321368    3.42499325944801
H         0.57065431120800    1.54648665178762    2.12560599188947
H         2.63179226743412    3.26779716371372    1.69406077015693
H         2.98814395437030    1.85372516423124   -0.39948858394841
H         1.25801036937832    1.92727213550125   -0.02761687320811
H         3.79253959413001    3.21345537412726    3.72171090642690
H         5.35919797911831    2.63308693661288    3.65226478477823
H         6.64125855078976    0.93639379751633    1.78835911106246
H         5.87404678770056   -0.70403912733388    1.53800361656549
H         6.73645738824404   -0.78904851722067    3.86291565591938
H         5.17443789015123   -0.07289371822628    4.19001589361541
H         7.69570630858963    1.09802371734570    3.90160225284453
H         6.48648758435781    1.50894098362673    5.06624577643835
