39
 energy: -54.524420530978 gnorm: 0.102413522224 xtb: 6.4.1 (79825abcba525fcdf90b791dcacef51065a7a4e7)
C         3.30936268839662   -1.70143699199648    0.24362779190774
C         2.43340401205868   -0.68605216472876    0.98472847831323
C         1.01313009816132   -1.02265079043429    0.50532435176624
O         0.01155641301211   -0.17625022014180    1.06126925815249
C        -0.39868982347489   -0.53377401580797    2.36561216704869
C         0.57222449327597   -0.30715051269406    3.50922563174059
N         0.68946237214745   -1.18894938172289    4.44877831978217
O         1.41766439922684    0.72506674150685    3.56877633903670
C         1.44916349788245    1.91110105327040    2.75218051415376
C         2.70607889995189    1.78914460425771    1.87318255825606
C         2.76553264999926    0.79443671016792    0.68729817570921
C         3.96806153635057    1.53899421673645    2.74241051443497
N         3.87304942646065    1.25802939150757    4.08578705940978
N         5.12231439724306    1.67490971606131    2.18260035122197
C         6.38696084762444    1.55439372797252    2.92328915757677
C         7.54544507764224    1.30976043343721    1.94249082398225
N         7.48669253442091    2.08507653976718    0.70131202267928
H         3.08885582030523   -2.71450916394116    0.59467685888651
H         4.37086687696106   -1.53342608627195    0.45567504979823
H         3.08206971590424   -1.60678721285644   -0.81623831377145
H         2.70912137628639   -0.81777906913873    2.04393831104501
H         0.75802668286490   -2.05904631328852    0.71471567231356
H         0.97623551434154   -0.77313497871237   -0.56266028333106
H        -0.63341091913882   -1.59935639900651    2.47567567074863
H        -1.29119830916714    0.08053742172108    2.48801119995002
H         0.06749895268134   -2.00087504857502    4.31604597726633
H         1.56945694466877    2.72587120634577    3.48075128595417
H         0.57813751639072    2.00033810883093    2.10088234688261
H         2.71932018411721    2.76626363765601    1.35779060180517
H         3.78900930127710    0.72188879314383    0.29454688450368
H         2.23634157374694    1.10644406101988   -0.22506254094395
H         3.10617128657076    0.62348746485139    4.30585774463768
H         4.73174549124537    0.98479496328336    4.54778654189328
H         6.40780981108258    0.74915227132065    3.66745819913309
H         6.52118897969069    2.45471810257785    3.53520103695975
H         7.55047832361520    0.27385432335176    1.58544778525040
H         8.55108842971242    1.47947053480050    2.34046372977717
H         7.18926717116937    3.04892002229918    0.87136720583088
H         6.73672005897967    1.80546375922610    0.07379691190910
