39
 energy: -54.526825578272 gnorm: 0.105636569532 xtb: 6.4.1 (79825abcba525fcdf90b791dcacef51065a7a4e7)
C         2.90895313402253   -2.25312426386690    0.80433596014132
C         2.11292759052583   -0.97989100241846    1.10890218782941
C         0.68840556723565   -1.16992221433012    0.56582751011187
O        -0.15167056266266   -0.10694227380875    1.00510449584656
C        -0.32234286854385   -0.18814715190255    2.40571594304600
C         0.75039770360616    0.24886212465486    3.38558083223777
N         0.85787170163159   -0.23301240421366    4.58154050479833
O         1.33186485801412    1.44313616582783    3.24632245785070
C         1.70417633246046    2.00645074115017    1.97409637886822
C         3.03370613261746    1.41149038124622    1.47839507690904
C         2.82542364079238    0.24195764031866    0.48435689598208
C         4.21713736600632    1.09368532716511    2.43192697250083
N         4.08847510896374    1.47014069475353    3.74887664622719
N         5.29610732600033    0.63294009585306    1.89555233252331
C         6.57299210238851    0.64861426818826    2.62479457051382
C         7.10126010474354    2.07839433683286    2.82618573821205
N         7.50711394731058    2.77825489085314    1.60529687949863
H         2.52564744413618   -3.15093564433601    1.29949798078027
H         3.97472952944132   -2.08849746595260    0.99669380966731
H         2.79608643472624   -2.45946234064159   -0.25803052443229
H         2.11266112854993   -0.85323593966704    2.20400763723163
H         0.31631822132337   -2.11636931213789    0.95160862058533
H         0.76954818394097   -1.32678943790488   -0.51723254655963
H        -0.48534522633760   -1.26338306667811    2.54703741285140
H        -1.18044728356930    0.44757513286419    2.62581926555039
H         0.24048597166685   -1.05157985962340    4.69317316041835
H         1.79951702313893    3.08462557468778    2.16796610210026
H         0.94642449774129    1.72188359320871    1.24219985780557
H         3.48176899279063    2.09939382390143    0.73907488826672
H         3.76431652742584   -0.07950683782636    0.01301628603239
H         2.19268288379177    0.55522495298303   -0.35902712113350
H         3.14929494627358    1.41633868326801    4.14158850522076
H         4.87209965458383    1.26660277279152    4.35712362475403
H         7.29471960341426    0.15698432206689    1.96143534669754
H         6.48903325282362    0.02983068711689    3.52651243548468
H         7.97425442739907    2.05319084151665    3.48788977377624
H         6.31833918017455    2.71217071884153    3.25498035980689
H         6.78755468541392    2.90430144401729    0.88925106697221
H         8.12037290032868    2.16899970479833    1.06944353173233
