39
 energy: -54.524609233052 gnorm: 0.110570217794 xtb: 6.4.1 (79825abcba525fcdf90b791dcacef51065a7a4e7)
C         2.90853651762984   -2.45354265270530    1.21315694575565
C         2.14584216042807   -1.13888498950631    1.40683894636298
C         0.78359850195134   -1.28728129579756    0.71216226234468
O         0.02477232970282   -0.08649556561158    0.81663706650348
C        -0.64945555394026    0.28967023916220    2.00042409365992
C         0.17128372819813    0.32164018392270    3.27606102018605
N         0.20039481169976   -0.63559695968172    4.14607414394617
O         1.14222623325480    1.23377382313862    3.37129903446019
C         1.76547350862386    1.87764096363996    2.24369261243168
C         3.08763863841581    1.32522034706335    1.68328392449348
C         2.84077662581654    0.09165703519870    0.77957988403603
C         4.30274067247720    1.17995579242229    2.63887684314440
N         4.10365204760802    0.60186689834398    3.87127530833462
N         5.41488958921516    1.45249566475138    2.04473302689653
C         6.71942872923052    1.23975986346833    2.68924505159518
C         7.60257533356835    2.44686084650510    2.33307680449682
N         7.69354952322551    2.65090707743183    0.88560294455590
H         2.34663384298363   -3.33614708501401    1.53479144247340
H         3.83171530613738   -2.37801342042520    1.79798094136018
H         3.23633224268256   -2.65602686948888    0.19556815899544
H         2.15426047608958   -1.02875364118922    2.50369706292525
H         0.26163831378079   -2.12588473527095    1.16750827683930
H         0.89601821284907   -1.56760346506135   -0.34282201256824
H        -1.47245454606072   -0.40103078481171    2.22014788346594
H        -1.11806965070413    1.26423794733421    1.86060248071050
H        -0.48930701004680   -1.37922755269754    3.95897897634709
H         2.13630067258391    2.84474872675484    2.61291623064481
H         1.11187857838720    2.08388485880656    1.39450716358878
H         3.47647238327418    2.10598606407877    1.00521385418518
H         3.86735031070209   -0.16373463665390    0.48302837429064
H         2.29013289381449    0.53867544292484   -0.06111024225840
H         3.17217369497079    0.52696427672948    4.27860109733378
H         4.89373590777932    0.62128497001474    4.50440240891369
H         7.24482635940511    0.29795515625601    2.49025444429096
H         6.63803037347016    1.29905729386703    3.78144257798078
H         8.64518913759194    2.41963105435292    2.66896596255149
H         7.17235980635575    3.37373152056424    2.72592264911677
H         6.76230414479468    2.54115214288883    0.47681110190115
H         8.17923938376348    1.86335327631717    0.46336887997585
