39
 energy: -54.521591945959 gnorm: 0.103669718770 xtb: 6.4.1 (79825abcba525fcdf90b791dcacef51065a7a4e7)
C         3.72804872382656   -1.20454096516752    0.28281589612024
C         2.51706676861114   -0.49073835002626    0.89236383872662
C         1.16959136939292   -1.04194007454956    0.40165860203626
O         0.08686590327913   -0.35339837311900    1.01990967751236
C        -0.34235462988038   -0.47008972837756    2.36139710950460
C         0.74287810629809   -0.46074117213353    3.42161742346640
N         1.02798138058742   -1.56213199106543    4.03783785519878
O         1.47836450041417    0.61983327009348    3.69585461520645
C         1.45946022535495    1.77693161742478    2.83837904390886
C         2.68239272461370    1.96932277199442    1.92472219956137
C         2.75132477043777    1.02524863412562    0.69864198707481
C         3.99425838491070    1.85532133801090    2.74736717646207
N         4.09611710837343    0.98625850985999    3.80896203483614
N         4.97196587711717    2.56326214203916    2.29231996587404
C         6.32573260317821    2.29486798375551    2.80001562085158
C         6.89462996171125    0.93491434989140    2.36323371086634
N         6.63001264745855    0.65438608269061    0.95030295849586
H         3.60917724071140   -2.29053099429518    0.35114725822982
H         4.66770584122082   -0.84814182312865    0.71871381424357
H         3.87770692568515   -1.03680443379440   -0.78179845270815
H         2.44466913493776   -0.85730439268826    1.92951639460196
H         1.05658595774312   -2.12200895874374    0.46264328866926
H         1.09824698639375   -0.71221610741696   -0.64256484712306
H        -0.85477254329572   -1.42755551294835    2.51423996985042
H        -1.02811975567117    0.37454299990601    2.43387616633113
H         0.40733351197979   -2.37126965862964    3.88365576080012
H         1.41287851329863    2.63123686652371    3.52912427416725
H         0.54834566124800    1.87330927998210    2.24557182211734
H         2.70860958732330    3.00216155728056    1.53341347915739
H         3.76989901075310    1.10198003296620    0.29411752861463
H         1.96877375969888    1.36479017247170    0.00429386035123
H         3.24547216087356    0.62620403307531    4.24017030863961
H         4.96932628774645    0.79660638617793    4.28540436076465
H         6.23623688555673    2.30663505910874    3.89294201392262
H         6.98085840203855    3.12688730428593    2.51437361525184
H         6.33790014258883    0.19743321350375    2.95211401833124
H         7.97271492183609    0.89017727224638    2.54825780596202
H         7.50041162554908    0.28807286191618    0.55711710620649
H         6.38308718598345    1.45957119141822    0.38010826175058
