39
 energy: -54.525066445122 gnorm: 0.105281174487 xtb: 6.4.1 (79825abcba525fcdf90b791dcacef51065a7a4e7)
C         3.33184241507781   -2.11698252596869    0.41653125624510
C         2.38661372140373   -1.03979595541883    0.95852013772793
C         0.91821768832119   -1.44188303609944    0.75250073465986
O         0.07210930774454   -0.43649858703767    1.30197432586814
C        -0.11405192397276   -0.49338451589579    2.70181133667158
C         0.95704946920794    0.15953229908740    3.55523153079185
N         1.51660968427344   -0.40168110825079    4.57797543755537
O         1.16009427947432    1.46877541105981    3.38658200520197
C         1.45357532408899    2.02673321006985    2.09157225760734
C         2.68731961113310    1.65512501221401    1.25066238625486
C         2.53482218754543    0.38516559291680    0.37702180903711
C         3.94901170464294    1.56383957461201    2.15095822520899
N         3.82933122067683    1.92645812411638    3.47262890708631
N         4.93339651531558    1.04514229801511    1.49819506472365
C         6.18920809646896    0.66973513188495    2.16488942353095
C         7.21560081844409    1.79883364411262    1.97633955765549
N         7.49005786649249    2.51805779662416    3.22232578809202
H         3.25337027607395   -3.00991298604235    1.04477584165620
H         4.36056929561622   -1.74138309340719    0.39145314972840
H         3.12955860855888   -2.41730204826750   -0.60954197346897
H         2.58176208424444   -0.94194730034311    2.03909417782045
H         0.75138163626359   -2.45316485101846    1.11652405042373
H         0.67258603141107   -1.50625647253144   -0.31508142932512
H        -0.27047342431686   -1.51830293033975    3.05923033134528
H        -1.05265888776388    0.04545397972116    2.83448202187148
H         1.36455611238564   -1.42011461206904    4.63587681099411
H         1.57999778400820    3.09500206036575    2.31950931429833
H         0.54937410647324    1.83575466154565    1.51123946514396
H         2.93552138006260    2.50071876799256    0.58437951817278
H         3.43982634797434    0.46100271271041   -0.24123171607812
H         1.68208749282640    0.55966911617871   -0.29542588939348
H         2.86757286972674    1.95140816638393    3.80963781369024
H         4.46898749304795    1.45643447551592    4.10141910853708
H         6.58689247904020   -0.25124293232855    1.72185152541518
H         6.01101206961408    0.36850169888009    3.20438060047463
H         6.83665240008269    2.35975016839751    1.11472637248083
H         8.16894815235213    1.37994006326726    1.63846453383124
H         7.53767710005635    1.84659130627543    3.99254655584209
H         6.77911177684881    3.21713890904918    3.42297097384658
