39
 energy: -54.525801416254 gnorm: 0.109124265338 xtb: 6.4.1 (79825abcba525fcdf90b791dcacef51065a7a4e7)
C         3.22135735774217   -1.88263123639002    0.32336461671921
C         2.34001967606638   -0.84534675293554    1.02680256667706
C         0.89270456907413   -1.14598366995431    0.60823196736644
O        -0.14448553838142   -0.26430256405776    1.02715154330579
C        -0.44128473644175   -0.26135327729378    2.40893923113441
C         0.72175427231120   -0.27043276319544    3.38317864761200
N         1.02519948549744   -1.33275543945667    4.05657657882822
O         1.40092516970025    0.85863852409114    3.60161016823207
C         1.48391864765304    1.90240444696500    2.61258887881185
C         2.77513490710250    1.68420070507040    1.80481738405974
C         2.76493589128998    0.60376555008782    0.69492723587202
C         4.03282956316609    1.53057838097479    2.70222305014014
N         4.17771539715131    0.53167470546499    3.63701104487882
N         5.02790697840936    2.27906865061372    2.36496447103298
C         6.31267416089942    2.28561669918098    3.08036999114000
C         7.40070747958244    1.51598456080275    2.31372379155370
N         7.43701046355668    1.73693484098760    0.86632792037431
H         2.83122967581816   -2.89345931981595    0.16779816742612
H         4.19366950583233   -1.94052089268754    0.82460379886416
H         3.41870635486855   -1.49713988112906   -0.67482705980812
H         2.47870717823012   -1.12560409515146    2.08393032440031
H         0.68452928067426   -2.20061207269925    0.77394296440815
H         0.87657433679738   -1.02507599560441   -0.48233287662265
H        -1.03832895113889   -1.15826769487615    2.61328335565420
H        -1.03895758541098    0.64783861110280    2.48027469094971
H         0.35840910779483   -2.09798391678365    3.87355845429820
H         1.49687574475128    2.88177684519118    3.11238693958020
H         0.57724184042216    1.86619160671598    2.00640028863410
H         2.94979243480788    2.64727255840108    1.29241797940430
H         3.81008574361587    0.49749425465685    0.37338497118858
H         2.10224112349506    1.08025478083037   -0.04235664389910
H         3.32520748231020    0.13507580683909    4.03085898886395
H         5.07101115403642    0.56008659623384    4.11311497929281
H         6.02777485973212    2.03692206444849    4.10974815906357
H         6.54184468714277    3.35767371073088    3.04555682945773
H         7.06268386066080    0.48245532915016    2.44849728924242
H         8.41192986012234    1.62085896044416    2.71984342802893
H         7.89451211196427    2.63017014195484    0.66834355375637
H         6.47065730931842    1.76797279390652    0.55070874764476
