39
 energy: -54.505725244653 gnorm: 0.116758403210 xtb: 6.4.1 (79825abcba525fcdf90b791dcacef51065a7a4e7)
C         2.01370741127418   -0.08557962562882   -1.39569096361530
C         2.82296898090225    0.31057144193962   -0.15645724612144
C         2.57956963471414   -0.72039637124375    0.95627230711800
O         1.17236797194552   -0.62324358283077    1.15366363671658
C         0.74791755559307   -1.12492838008019    2.40489898371318
C         1.29659791568289   -0.49589580675256    3.67184511952883
N         1.35756911440054   -1.08986197514805    4.81969526392192
O         1.83201766470366    0.72765827943648    3.66650552093108
C         1.31289855689688    1.65860874104354    2.69782346931248
C         2.39208791165379    2.19017580444649    1.73858738352617
C         2.38413379702656    1.73393897438401    0.25835600548035
C         3.73103180458297    2.00557745897524    2.50271124910329
N         3.60449219860497    2.63162895062625    3.72118419224743
N         4.77867292017829    1.40716218017632    2.04608524787247
C         6.00454293920938    1.34228889746532    2.85572021735855
C         6.37477408726414   -0.07849877499330    3.31199622986186
N         6.77371720642205   -1.00894678736869    2.25359998099456
H         2.35816119706674   -1.07478828059700   -1.71348299523387
H         2.20654880648185    0.60198279033856   -2.22638522959735
H         0.93620812631158   -0.14431274574326   -1.25611108217482
H         3.91629988252602    0.27571593814217   -0.29324223162002
H         3.07044762012667   -0.47067580810097    1.89420439491358
H         2.82754272403616   -1.76865192149523    0.74679635752868
H         1.05043982020066   -2.17472443775426    2.50020014443620
H        -0.34219005482950   -1.10559746183687    2.38995948580582
H         0.91727501746771   -1.98811317529268    4.56876587225967
H         0.76600121125735    2.41232871302532    3.28258476119696
H         0.51829167395126    1.11918483031602    2.17969167413002
H         2.25757987032024    3.28464395470364    1.80650532270870
H         3.04224005765199    2.40302508263414   -0.31281922636331
H         1.37744730125551    1.83726249131008   -0.17257368546373
H         2.77398224580159    2.55633446163402    4.30749519288107
H         4.49164913536474    2.74864792882929    4.19522915830399
H         5.92630218244411    2.09100464529567    3.65317814823216
H         6.86305863347378    1.68913963675941    2.26777236330706
H         5.70149850949276   -0.58815305549301    4.01025050801785
H         7.28028123745978    0.11776154977470    3.89512673782421
H         7.10413905843409   -0.45378124350021    1.46051266641516
H         6.04358109596416   -1.53233828657215    1.77675636707665
