39
 energy: -54.522484510257 gnorm: 0.114889814927 xtb: 6.4.1 (79825abcba525fcdf90b791dcacef51065a7a4e7)
C         3.01099810507195   -2.29003466218145    1.06919853747647
C         2.18811094768386   -1.00418681322559    1.19955261473522
C         0.81242219307228   -1.10214806523275    0.52265604661533
O        -0.06374643234332   -0.02077384197032    0.82527268264974
C        -0.51650684473544   -0.06221425209610    2.16345291868295
C         0.30595478165511    0.26028420512715    3.39691802680283
N         0.11898952544683   -0.40227350185893    4.49242452717262
O         1.34909694543195    1.09243420530661    3.45320456080020
C         1.69003554870640    1.93421713226492    2.33532233515343
C         2.97239951283261    1.44902145569142    1.63712832878298
C         2.94882863037069    0.23542704296495    0.67487405190322
C         4.21843460321632    1.21102002601546    2.53238496273085
N         4.05745764049699    0.52637634179486    3.71474635626354
N         5.33817897103866    1.63579694353340    2.05290901435693
C         6.58115956533928    1.26811785943353    2.74737714132703
C         7.58194319194112    2.36869949283612    2.35872725314785
N         7.73064012123035    2.29872822856340    0.90336304049694
H         2.46524072238694   -3.23785133158186    1.02485463574647
H         3.75245878462232   -2.41957712420965    1.86508650069994
H         3.69564309418861   -2.19846534585624    0.22847674622898
H         1.92275810154283   -0.89888391059741    2.26435150046343
H         0.30168612085268   -2.01641334777197    0.81643455065554
H         0.84760692279835   -1.16015227168805   -0.57261016264665
H        -0.85660908607421   -1.08625093196066    2.35929245178113
H        -1.40694323819734    0.55657359980793    2.27815288929081
H        -0.61066187751715   -1.12703520248853    4.41490701130753
H         1.91107223220509    2.92574657896758    2.75621236704397
H         0.95880522810607    1.95984360967975    1.52570248334151
H         3.19239725011508    2.34504260681744    1.02941714528945
H         4.00766668997785   -0.00243237697194    0.50368384736812
H         2.52339576528481    0.52916339371965   -0.29596047784918
H         3.13022638345353    0.41866497050807    4.12440118395403
H         4.84663311270492    0.40875141000446    4.33830544547977
H         6.90398406770952    0.24406520707139    2.52436021456525
H         6.42971623358926    1.44872350357806    3.81858386086250
H         8.58923646534096    2.10770594592083    2.70201891535231
H         7.25547183420131    3.33443638044972    2.75781524032795
H         6.84850186057384    2.36306912263177    0.38948833820275
H         8.29429950639838    1.46312211455420    0.76746691826770
