39
 energy: -54.519903134993 gnorm: 0.114645755812 xtb: 6.4.1 (79825abcba525fcdf90b791dcacef51065a7a4e7)
C         2.82927129193114   -2.49997717881323    1.04772172972591
C         2.05053190992622   -1.21549755409493    1.34974367764978
C         0.55304520142723   -1.38797482308539    1.05294389375640
O        -0.23756287220110   -0.20399769679104    1.01104442629417
C        -0.64930541616220    0.18588828474843    2.30560716960804
C         0.44288214271819    0.24134576302286    3.35724182585538
N         0.34849538202217   -0.53278771606448    4.38965732089951
O         1.40304401139376    1.16910695044538    3.32354031052341
C         1.80398394885432    1.83679944380513    2.11195777768263
C         2.95417977883532    1.20357223517221    1.30982314898482
C         2.64169904134307   -0.07364924205493    0.49106713396482
C         4.26819064503435    1.05714357437911    2.12386658381774
N         4.24530020386599    0.94456386287789    3.49478995965026
N         5.36155016110421    1.14845089068603    1.44534757962816
C         6.73030669134349    1.19892199955518    1.98054181737413
C         7.24871761505980    2.64527539921105    1.92389832117661
N         8.31250767817733    3.00617733928622    2.86368139828025
H         2.36462126664372   -3.37274551594205    1.51734896267679
H         3.82368974302112   -2.42781639912923    1.50149217359806
H         3.06033222187162   -2.81931036058646    0.03353535497588
H         2.09403302573191   -0.89198403350690    2.40271289716651
H         0.11914458473522   -2.10862277866895    1.74246180153859
H         0.46217249977017   -1.85647531403155    0.06478399755632
H        -1.49575198598733   -0.38524888717065    2.70561258582395
H        -1.02218873041595    1.20406800562054    2.19071777338311
H        -0.35737714934693   -1.28295126690210    4.44140943396131
H         2.13289714397968    2.85470914137734    2.36654027795200
H         0.93240130775518    1.89438612951702    1.45784288259733
H         3.17411543214016    1.91943276946677    0.49758068463273
H         3.56376893969197   -0.44390948383158    0.02232872943152
H         1.90870265018763    0.03463804497175   -0.32181909466784
H         3.34049308302479    1.25194580131462    3.84977877928624
H         5.10028963073203    0.93134964239693    4.03726388847917
H         7.35600945775951    0.68376626445427    1.24179513275959
H         6.89572044424615    0.74905714793922    2.96710008553548
H         6.46772375784608    3.37439060599356    2.16689244348195
H         7.61899014274567    2.83655078985935    0.91156710834347
H         9.16908222815192    2.45511140717781    2.95845084635770
H         7.95570956014027    3.23758073840966    3.78756710801483
