39
 energy: -54.526422974719 gnorm: 0.113005983581 xtb: 6.4.1 (79825abcba525fcdf90b791dcacef51065a7a4e7)
C         3.55293456120985   -1.51725098284021    0.00752212996149
C         2.72974308033193   -0.56840595161582    0.88478437574166
C         1.28275343529822   -1.05887481203559    0.72364411513901
O         0.24154837728314   -0.17988411089290    1.13823532822511
C        -0.40101347394076   -0.50496041633806    2.35432550864910
C         0.54036048681327   -0.37351870146245    3.53687474855002
N         0.43920599440695   -1.17864674840501    4.54464942573740
O         1.40260278585691    0.64261512356607    3.62517891959836
C         1.43562370943684    1.74884623680725    2.70340854628668
C         2.73834820571234    1.83293276234575    1.88904660182161
C         2.92937615169673    0.94429866158957    0.63479860382572
C         4.04877757743885    1.73674311104828    2.71624366865915
N         4.15919023844440    0.61600882274440    3.50642892575105
N         5.02504328018537    2.52361903816852    2.41310735629101
C         6.34457709797414    2.20735907177250    2.97992724464915
C         6.99992317338600    1.03617914373693    2.22975684879995
N         6.96873500129887    1.21186596676761    0.77605358470258
H         3.13912204625400   -2.48323773410195    0.31379447514547
H         4.62570117859234   -1.39090998425561    0.18971043474039
H         3.30455883847210   -1.31770490250027   -1.03287572462869
H         3.04751713010776   -0.61081545555536    1.93954434604483
H         1.10947024684047   -2.03124634421271    1.17917094151864
H         1.17278126962226   -1.15751514808923   -0.36373196280830
H        -0.71550191178078   -1.55384609986502    2.29424541306592
H        -1.26359755359821    0.16161283844216    2.37799522644257
H        -0.19588769042797   -1.98499666081681    4.44397428967806
H         1.40376524344776    2.53414557029651    3.47245098203452
H         0.59555255817212    1.76219998000878    2.00703154725832
H         2.82201682595380    2.86724621791257    1.50988828990632
H         3.92300120523281    1.23261187034257    0.26519615909113
H         2.10605359388936    1.32358299305512    0.01184015872969
H         3.27624147120875    0.36394223730140    3.94919358922746
H         4.94289574966919    0.67556648532214    4.14495696562253
H         6.29436230339304    2.13006483023692    4.07269442813928
H         6.97582818537969    3.06667494249801    2.72275878160727
H         6.66487743438756    0.01705642300179    2.45278097994025
H         8.07137771649887    0.92444690612719    2.42470189634634
H         7.31383581142424    2.14714792231541    0.54686378264077
H         6.01641549382067    1.17046866167407    0.42138323914325
