39
 energy: -54.522972477853 gnorm: 0.106833420572 xtb: 6.4.1 (79825abcba525fcdf90b791dcacef51065a7a4e7)
C         3.30970778823510   -0.88715343251881   -0.44023596943171
C         2.32348981871862   -0.14461992110324    0.46726513664630
C         0.90649514587082   -0.72471167592791    0.34107252881270
O        -0.03419782862400   -0.32976561197268    1.33492002134309
C         0.11030267651620   -0.92810304247307    2.60714154050910
C         1.21846357221935   -0.33351376441598    3.45586270281676
N         2.01788898898168   -1.08977072485746    4.13635344193143
O         1.54414002650587    0.95779791179728    3.55703775436019
C         1.27600387348989    1.94384148999364    2.54199126232947
C         2.53963068237061    2.13491380223680    1.68520322353881
C         2.35565823242246    1.39566900476467    0.33651068087696
C         3.90125985681949    1.69854011454718    2.29041111573303
N         4.11442042747347    1.87332530270712    3.63823965088845
N         4.83310762930188    1.46169626762114    1.43033855441419
C         6.21531647126846    1.43500447189352    1.93159788814085
C         6.60987964666925    0.15549791944084    2.68729585193947
N         7.09514655808496    0.58929850114485    3.99932665358086
H         3.30188087005876   -1.95319935430072   -0.19192411162031
H         4.32723930989416   -0.50261220741127   -0.31085092308481
H         3.06067516439462   -0.78228131416948   -1.49423854151153
H         2.67434133932969   -0.29482207948498    1.50149916813253
H         0.94185204457768   -1.81179412331409    0.33476429087724
H         0.31541267119941   -0.43648674852653   -0.53742529304677
H         0.36799533625612   -1.99365464028169    2.57767855259744
H        -0.82391045067935   -0.82099596117349    3.15914278119081
H         1.83761645490390   -2.10180021235794    4.05282027255473
H         0.82455243218825    2.82062290067809    3.02838844909245
H         0.45688608249194    1.67561029919853    1.87271039210310
H         2.58117106642461    3.22619779561907    1.51805229390664
H         3.34292232432689    1.60506137945117   -0.09763870431226
H         1.60269403574949    1.80065890643746   -0.35545893218310
H         3.27065147029186    1.83219304908474    4.20879965487835
H         5.08976325894338    1.83484037905447    3.90784078430630
H         6.38834550330099    2.32075702655643    2.55460624449455
H         6.82675582963106    1.54794938867777    1.02803677901800
H         7.28259266694447   -0.47767656258294    2.09809826182255
H         5.66948721024409   -0.39851059392548    2.77237897810253
H         8.11246661860744    0.69622914363949    4.00010340920403
H         6.88343001196801   -0.20311627091417    4.60071851364525
