39
 energy: -54.525064267138 gnorm: 0.108349543415 xtb: 6.4.1 (79825abcba525fcdf90b791dcacef51065a7a4e7)
C         3.77438175276558   -1.16851602338518    0.12741632128579
C         2.60053527634507   -0.56653497116430    0.90667458154451
C         1.29359245643446   -1.35028111813560    0.71187369086923
O         0.20561979266848   -0.50787072405931    1.07967624892894
C        -0.39020945857537   -0.62971029317721    2.35544201220637
C         0.51940504806173   -0.29720290895526    3.52331394567925
N         0.84982703671361   -0.99473089723907    4.56174989834605
O         1.12089136486868    0.89260969447449    3.60298545335996
C         1.30159401486728    1.99617660282264    2.69524929694986
C         2.58552813108870    1.81884050338105    1.86614605722276
C         2.39932091781679    0.93680925573621    0.60652386627088
C         3.84580523193157    1.41924471477913    2.68024521194260
N         3.82441978703933    1.53915855611726    4.05057086503842
N         4.96866104549576    1.36560894458622    2.04741180393409
C         6.24304898059357    1.03672869032538    2.70334458957509
C         7.37940600766694    0.90298608907118    1.67635766052093
N         7.67420917302910    2.20267569115306    1.06891237454402
H         3.90933430271545   -2.24646364301380    0.26154568943287
H         4.69407104156042   -0.58922511275564    0.26371194883751
H         3.48623075157146   -1.07596487053668   -0.91773444452339
H         2.88044246161327   -0.58371991142156    1.97281442406279
H         1.16928208897701   -2.23537869064300    1.33170219697260
H         1.19554019979393   -1.56181650309521   -0.36043646371094
H        -0.88309234018879   -1.60245746026702    2.47164519971079
H        -1.15966066760188    0.13899545625839    2.43269336978332
H         0.40773845475145   -1.92191071580992    4.46914897953813
H         1.38519099873165    2.88422435623672    3.33830373391371
H         0.47219833017286    2.16069249409314    2.00541154574604
H         2.71883106369684    2.84171699495168    1.47052020309899
H         3.22784888554269    1.17402124221963   -0.07486670786837
H         1.45667421083554    1.22672035480100    0.11953043489424
H         3.05607888413719    1.19236444128757    4.62377478571942
H         4.70813079076604    1.28098617708769    4.47230702707800
H         6.13583984923007    0.13552756933415    3.31895711998823
H         6.43791756632279    1.83037398381477    3.43491188005919
H         7.14936005415274    0.11966568754501    0.94553993957818
H         8.22684339606396    0.49996561222321    2.24020770507661
H         7.85309044415715    2.82758052938177    1.85876698499416
H         6.78322426554093    2.52959037548685    0.70327605270574
