39
 energy: -54.518711599095 gnorm: 0.118312279396 xtb: 6.4.1 (79825abcba525fcdf90b791dcacef51065a7a4e7)
C         2.44663769978857   -2.67517757279957    0.49885621500250
C         1.97900176303739   -1.34119686333420    1.08991649060409
C         0.49315534856156   -1.16793897865367    0.73984929999234
O        -0.05159263735120    0.06577064071537    1.19791992496068
C        -0.45781949365773    0.19593272946536    2.54531489983416
C         0.57244057450672    0.33623306915158    3.65019705099238
N         0.47085249107906   -0.28750310397952    4.77922595352734
O         1.70218145487778    1.03309960781844    3.50237978267409
C         2.02024557061275    1.72319317442380    2.27881761270925
C         3.12544170365485    1.02883398584409    1.46410670323267
C         2.90495755603853   -0.21711221262516    0.57062752059201
C         4.31487281769526    0.80972670450865    2.43774842791647
N         4.37764680991461   -0.35061549181636    3.17415485757077
N         5.14679400615535    1.76876153899215    2.20901411350192
C         6.51062467714837    1.81894250629491    2.75666582763434
C         7.52919493921074    2.39999359941115    1.76228624115557
N         7.64226732833741    3.85796896794931    1.68095853808047
H         1.67643848156409   -3.42750805999105    0.69625415920092
H         3.48085298526303   -2.94206281621552    0.74207185785149
H         2.31921585137141   -2.50400558793988   -0.56810238807781
H         2.09106825040692   -1.44414159298355    2.18176857585324
H        -0.09476754633672   -1.96666087635898    1.18642308414881
H         0.29700687970013   -1.19547411418472   -0.33949221690566
H        -1.05852771304928   -0.69183662475080    2.77702373173392
H        -1.11165103453456    1.06282925749791    2.64494512929437
H        -0.38996991419622   -0.84896376627275    4.69304953037964
H         2.31441288229828    2.71694321771376    2.64632640533004
H         1.10158260584895    1.91939596850033    1.72347842923869
H         3.47825610184580    1.82633204161037    0.78581130833419
H         3.90701627587358   -0.55313037472004    0.27064198489199
H         2.42662792624035    0.25899114703022   -0.29788857548486
H         3.51097401073565   -0.73590505939279    3.54779483424671
H         5.20200507475754   -0.40282059347050    3.75995992131898
H         6.88907929966621    0.80612659868255    2.94000179203683
H         6.43222452651250    2.29991731253094    3.73929188074763
H         7.35654636019189    1.92986853701620    0.78771894084957
H         8.57478853363910    2.17547595883272    1.99644081340833
H         8.12067511969149    4.12201529366372    2.54570150191092
H         6.71017872664327    4.26108451006872    1.62504849879777
