39
 energy: -54.526075484814 gnorm: 0.100937083682 xtb: 6.4.1 (79825abcba525fcdf90b791dcacef51065a7a4e7)
C         3.45364069219974   -1.70936326874618    0.33780866078231
C         2.40989047004218   -0.80070002821191    0.99542311281608
C         1.00330001018592   -1.05763325303377    0.43346800382311
O         0.10847262433401   -0.09340486434190    0.97951386737138
C        -0.41188808241161   -0.38469457198855    2.26084548872194
C         0.53132800083304   -0.35767274838481    3.44891024255376
N         0.69338203934333   -1.27997238027152    4.34175687968599
O         1.17434360508473    0.78949923089488    3.68196557749360
C         1.50443513429714    1.84066794283575    2.75428986075622
C         2.81572977091682    1.63909277313184    1.97504606181954
C         2.80164368847404    0.67660377595850    0.76149062663465
C         4.10135306229339    1.53450716081431    2.83931869499808
N         3.95152350706683    1.15071030925935    4.15190397722322
N         5.17633225469252    1.97087422890716    2.27525876949166
C         6.48263565695977    1.66162177521095    2.87559950011952
C         7.45850415695393    1.26393086077988    1.75603747001637
N         7.17750320693595    2.06291597904582    0.56115128635035
H         3.35031161664581   -2.74724129997924    0.66993250236701
H         4.45129543355090   -1.46534379831666    0.71875795236088
H         3.37385894705773   -1.58557675587596   -0.74026768645628
H         2.53622860367429   -0.99070565280216    2.07395640029199
H         0.62736427990882   -2.01070543721737    0.79865822993651
H         0.98714658515527   -0.93737451197308   -0.65716824864597
H        -0.88188719619464   -1.37331110487268    2.32726819696811
H        -1.16532199169715    0.39965480403654    2.33872280051312
H         0.03492101932576   -2.07003683936582    4.26490053359727
H         1.51118930551699    2.69510218023844    3.44641181081939
H         0.67377314176464    1.90508642423693    2.04952768460415
H         2.87465928819589    2.63848548887563    1.50781236808039
H         3.78215867382048    0.57552832013748    0.27631504936688
H         2.15080017106830    1.11719411911219   -0.00797459285051
H         2.99062053170750    0.97147585977368    4.44124308353467
H         4.66299320510718    0.79648931803205    4.77943711923192
H         6.35701507615228    0.85701829286249    3.61008486634356
H         6.84809473332411    2.49116632467512    3.49312101483628
H         7.36890889375372    0.20470030698548    1.49031231672796
H         8.52562637650209    1.35319059132526    1.98360146784623
H         7.58427115279651    2.99635739685114    0.65914020987920
H         6.16061198956945    2.06393508907210    0.57981809919672
