39
 energy: -54.521369135599 gnorm: 0.120968870491 xtb: 6.4.1 (79825abcba525fcdf90b791dcacef51065a7a4e7)
C         3.85327657674232   -1.12519220060031    0.29969354939972
C         2.75407097079043   -0.43210737277094    1.11143282276090
C         1.44165396829751   -1.11573123264953    0.69848611144136
O         0.32953934065758   -0.25552638518243    0.92622982826251
C        -0.30006733109100   -0.48956350535136    2.16971595795751
C         0.60370883138617   -0.53404810566116    3.38753959130664
N         0.51133710901767   -1.49061575643020    4.25386461404588
O         1.38009647554221    0.50756554042650    3.69746000532536
C         1.27553202224422    1.62789810298419    2.79833845466729
C         2.57350993411819    1.95445823668480    2.03941887494676
C         2.83216634536035    1.07798918199665    0.78873938396577
C         3.84629989672954    1.82402085548376    2.91903493449135
N         3.73807683405248    1.77078284780919    4.28946644548210
N         4.94266870796965    1.80939315316570    2.23938683643626
C         6.32767240759987    1.71389103532320    2.72427726252044
C         7.02449533652997    0.74749807610792    1.75246505028832
N         7.14502910712582    1.13854076873384    0.34617597585491
H         3.82875783558672   -2.21924920409853    0.32443334768915
H         4.82788006339727   -0.85465942107550    0.72033937309470
H         3.77047638092420   -0.78580728214792   -0.73079121291662
H         2.96584414021781   -0.67477899726392    2.16573834033204
H         1.31923448642969   -2.05124602648555    1.23965494388904
H         1.30183919903417   -1.17558507596203   -0.38828888053717
H        -0.74944504769847   -1.48986542722155    2.15833485885666
H        -1.01275080846511    0.30707629600269    2.38507325574281
H        -0.18837167032322   -2.19092527809379    3.96463483726120
H         1.30214342814175    2.37718114919554    3.60270345353315
H         0.35770321482540    1.65062080827274    2.20849714570332
H         2.44793385482196    3.03484081640817    1.84558923109806
H         3.88339591183779    1.35754967727834    0.63452014363339
H         2.19532996271927    1.32057714181025   -0.07461707105165
H         2.82132990325281    1.61122262928092    4.70575028409166
H         4.46441131527988    1.29255005238165    4.80830274921329
H         6.36775408771183    1.24485581082045    3.71474960264833
H         6.85376448205266    2.67590098835024    2.69597024739411
H         6.50314786027149   -0.21605596249173    1.73330897855284
H         8.03426348246382    0.56012152145393    2.13162309179471
H         7.67652211799998    2.00808784132531    0.25798335654135
H         6.19761332237830    1.41667204820067    0.10232446848016
