39
 energy: -54.520698882702 gnorm: 0.122498377585 xtb: 6.4.1 (79825abcba525fcdf90b791dcacef51065a7a4e7)
C         3.30738272156488   -2.04748995028848    0.70994318723056
C         2.38883978919672   -0.91811741371725    1.18778912078257
C         0.99352681640521   -1.28633181591522    0.66069821958805
O         0.11415729071308   -0.20098130251744    0.93880255975080
C        -0.46082967411924   -0.11140601085811    2.22674741262247
C         0.44960089483760    0.27060078371572    3.37873335746310
N         0.43564975904157   -0.41245372024619    4.47751229925390
O         1.21667917358314    1.36343477818680    3.41178173473825
C         1.57232846483818    2.13700686702061    2.25005967441451
C         2.92497938028627    1.64341036021718    1.70780042065355
C         2.82399949774303    0.47971948571812    0.69048683076531
C         4.09926090983697    1.26544617401238    2.65063581513982
N         3.90675422075907    0.45041294418552    3.74209862200344
N         5.15739635216342    1.93592361692006    2.34246461925524
C         6.42448712415602    1.75309563520239    3.06601804700258
C         7.45974214374087    2.13561006002886    1.99558528471827
N         7.51750463952021    1.20943863439065    0.86246493320276
H         2.85500850938005   -3.02647109186932    0.52252001049527
H         4.12083972214695   -2.32271513634373    1.39003263115015
H         3.81019472683267   -1.75745493478863   -0.21038100281949
H         2.46715194374211   -0.97606199632355    2.28588162471753
H         0.67744763973085   -2.21589582250454    1.12871838547930
H         0.96186415264029   -1.29794177444468   -0.43614872482460
H        -0.89654145083714   -1.07281332374741    2.52427895836056
H        -1.24276772884432    0.64476214053358    2.30233896940414
H        -0.16112681636024   -1.24785877269373    4.57567431213170
H         1.57884779926321    3.16490947219338    2.64058498793901
H         0.83149206431865    1.98793800707051    1.46279940937161
H         3.18251530142353    2.55643753678092    1.14156510596022
H         3.86822252990854    0.26178299801207    0.42757392846139
H         2.26111307211383    0.68429561016670   -0.23206470976010
H         2.95993794519856    0.12457365976513    3.93326434677129
H         4.64322935490567   -0.00261014607547    4.26919818169206
H         6.65279872018346    0.75292909581123    3.45354450368032
H         6.38495299954418    2.47234816492817    3.89315175678835
H         8.42287106043151    2.11511799819993    2.51766698569960
H         7.26858471534145    3.12343470158984    1.56411822725115
H         6.58301216577907    1.24458073112275    0.44790043708187
H         7.82012501637632    0.28359085991773    1.15511496669426
