39
 energy: -54.528799376873 gnorm: 0.095848938384 xtb: 6.4.1 (79825abcba525fcdf90b791dcacef51065a7a4e7)
C         3.46232951477888   -1.28896563209046   -0.03718157536023
C         2.62062833990973   -0.46595242782802    0.94349604301120
C         1.21615825486836   -0.93998965497052    0.53969231559410
O         0.09782564626599   -0.29112274124994    1.13712216782709
C        -0.23442277562445   -0.89207167955574    2.37239826803886
C         0.66624404456547   -0.54302699751856    3.54237762747491
N         0.81379588405766   -1.36629276928636    4.52956310215072
O         1.36788770525767    0.59241509291086    3.58986272697260
C         1.33627940330867    1.68961961320157    2.65731702838902
C         2.62453501979975    1.97244788177767    1.86500853131804
C         2.78836732181498    1.04054626301350    0.63862413315376
C         3.86138684486737    1.89689253175542    2.80054130624343
N         3.63565336739979    1.78606106428850    4.15309068479909
N         4.98948753486903    2.09246988096114    2.20615220584392
C         6.35495641646747    2.02519291504339    2.74785615229552
C         7.11867223793819    0.80765256756154    2.20175162060696
N         7.53879355800138    0.85240558398529    0.79940110109835
H         3.28335215131534   -2.35040664299439    0.16152433667127
H         4.54364300150640   -1.16694753485342    0.08873735477699
H         3.20529809006984   -1.07613393441286   -1.07283323272333
H         2.86687543240139   -0.64166521802481    2.00358325874752
H         1.12456472524718   -2.01188275012844    0.69998574424529
H         1.10765169027219   -0.76593531889732   -0.53833456322185
H        -0.23014198271796   -1.98540607588479    2.28710253653625
H        -1.27820401356885   -0.59338028783385    2.47356966168779
H         0.29031647376089   -2.25482971172260    4.54185409729414
H         1.26410794713315    2.60613269245474    3.26058426266917
H         0.50916958801015    1.55516412481043    1.95828205641147
H         2.59799525241792    3.00527948576104    1.47370261194574
H         3.84005883492177    1.20635872275121    0.36756613632598
H         2.05040653002787    1.39065459944565   -0.09801139381878
H         2.70472710055919    1.72837503095017    4.56446062794783
H         4.34479040257181    1.51511705398920    4.82329475659686
H         6.49342026431690    2.10033470779952    3.83312916139972
H         6.79561881997700    2.97205427329459    2.41273300011982
H         6.51620510131611   -0.10041939916902    2.31596712677186
H         8.04200565393920    0.71390470117047    2.78241438088996
H         8.29913695251977    1.51020295518646    0.61083967903806
H         6.78286719579405    1.00753894124340    0.13688603714751
