39
 energy: -54.524646477211 gnorm: 0.111361517475 xtb: 6.4.1 (79825abcba525fcdf90b791dcacef51065a7a4e7)
C         3.69573347139049   -1.08919327330226    0.04807769607331
C         2.67478325957584   -0.29359274602016    0.86796831587463
C         1.35111318979665   -0.99079372112193    0.51852121769046
O         0.14414030700433   -0.52615432948890    1.11513264074950
C         0.00529690799057   -0.97056507663343    2.44954533076087
C         0.82660636824315   -0.35463362765875    3.56666829957669
N         1.06643772921767   -0.91623982664589    4.70734905387921
O         1.19068620255759    0.92998606534804    3.59806024159771
C         1.15055528202986    1.94703111524881    2.57898852593838
C         2.53162381725975    2.04647505964493    1.90808788260411
C         2.64828778762226    1.22856308595849    0.59785514889312
C         3.73411099035060    1.68588352401961    2.82172398158891
N         3.72182607907300    2.13238924107178    4.12291987682501
N         4.71330727014272    1.15077705322429    2.17442515185126
C         6.02117064717108    0.85413367132013    2.77772500858815
C         7.09355432094890    0.48814063898866    1.73852393641152
N         7.61640615246426    1.60860909407399    0.95349646003435
H         3.91621760879573   -2.09465296214125    0.42038335726152
H         4.60662378010913   -0.51304793400138   -0.14767274638029
H         3.20739965760403   -1.19201859462831   -0.91882140780059
H         2.89742074161279   -0.64820716533232    1.88776176004385
H         1.56103706819447   -2.03499215718224    0.73902007190122
H         1.16873248850094   -0.84412798581344   -0.55359676530658
H         0.24001985599717   -2.04036497341486    2.39380416907187
H        -1.05320867919079   -0.98931925689654    2.71059253206814
H         0.75049504687026   -1.89645288900503    4.65219263055859
H         0.95624756853698    2.82866502020292    3.20676432012649
H         0.36534402700402    1.71903480802876    1.85628543007716
H         2.58374414052684    3.13678871402565    1.73760212972947
H         3.59082951289830    1.50774227799233    0.10724807312160
H         1.76899849341934    1.50173288820147   -0.00382786797735
H         2.77878710574050    2.00719942439178    4.48922800529313
H         4.42618530431509    1.71003839876191    4.71533640802429
H         5.90775553059786    0.03561218510900    3.49869354219030
H         6.40061783851772    1.74756236449614    3.28845224337549
H         6.77568451507141   -0.27311260186627    1.01737289974333
H         7.91527307034322   -0.00962745777522    2.26341222786056
H         7.80143710051792    2.36831349740614    1.61303238636455
H         6.86776883082013    2.04276307003242    0.41920279539656
