39
 energy: -54.523394707510 gnorm: 0.111122837801 xtb: 6.4.1 (79825abcba525fcdf90b791dcacef51065a7a4e7)
C         2.82752334736354   -1.72563760428308   -0.15596627496372
C         2.05687043170660   -0.71728301475290    0.70243646909569
C         0.55830988682263   -1.03519684480428    0.58602336062777
O        -0.27949027967699   -0.11498385680421    1.27878409722429
C        -0.36204609512395   -0.23103045391557    2.68489695922737
C         0.86639496370310   -0.12761895608776    3.56927425425042
N         1.25363867073416   -1.00765392940717    4.43509985715834
O         1.67361311067565    0.93105981066435    3.46257133419959
C         1.66141899418304    1.97579172238150    2.47116584485865
C         2.77986140985786    1.71957570288610    1.44608682885423
C         2.50056058852661    0.70962859254105    0.30534226145731
C         4.22517098093517    1.57408169723708    1.99439725742004
N         4.35943038374937    0.42087342117802    2.73244477323702
N         5.10397394413940    2.48932219408407    1.76158777120330
C         6.39111269033944    2.45420538160707    2.47188017265269
C         7.38566926442168    1.28407910250127    2.39732667022226
N         7.38790084476895    0.64782146850209    3.71651694560806
H         2.63600884888420   -2.79500889028756   -0.02202152741528
H         3.90149484758232   -1.52162896929956   -0.08562043127704
H         2.55219493155638   -1.57584087798001   -1.19793174452070
H         2.32805890247216   -0.92427731573409    1.75072444365495
H         0.47531973512853   -2.09070589851069    0.83512459408512
H         0.23115517868680   -0.84201269185488   -0.44347176171233
H        -0.87123836206107   -1.14653276551875    3.00932341922520
H        -0.94271051620660    0.65818560203247    2.93199026986840
H         0.55367378864872   -1.75847208310974    4.53510448009628
H         2.03506422161876    2.81664242153061    3.07324195234228
H         0.71570418475221    2.14601399941603    1.95397470436128
H         2.78842190819839    2.73366664902423    1.00778091241138
H         3.39747792695553    0.73468188684864   -0.32863947629352
H         1.65796753128618    1.02853588263060   -0.32563233441279
H         3.53338941138894    0.13500243318172    3.25695476305039
H         5.14685799389125    0.26861713431153    3.35069656442652
H         6.08206332494241    2.60126542895137    3.51375246760357
H         6.91616401924230    3.40154424808840    2.29894235741120
H         8.35656047453343    1.73902499702111    2.17149261058249
H         7.18990238805883    0.58754901196667    1.57572843411464
H         7.51245916167278    1.32763905836449    4.47064434882392
H         8.07243575440365   -0.10379182069013    3.74662767129669
