39
 energy: -54.525192016930 gnorm: 0.107797393797 xtb: 6.4.1 (79825abcba525fcdf90b791dcacef51065a7a4e7)
C         3.31930596654386   -1.85738256162103    0.65591275984139
C         2.39705236224402   -0.80756659758324    1.28430350083380
C         1.04207403403262   -1.11163637064908    0.62712752244192
O         0.09448830046336   -0.11874990173604    1.00775366347196
C        -0.49847132211205   -0.39283136331889    2.26103491758262
C         0.37790229506183   -0.27630444463669    3.49402937672338
N         0.34614173593443   -1.09285381936393    4.49718021314742
O         1.33123441253139    0.65792120973726    3.54058773688852
C         1.49738762041882    1.76928222777877    2.63960599300921
C         2.80235055726272    1.67592793459308    1.82985059756798
C         2.83903708929811    0.57200692364942    0.74388889332141
C         4.05559672330174    1.45514598622499    2.71943589445344
N         4.04823929713953    0.49947176208990    3.70901242084562
N         5.11346574706231    2.02119637269948    2.24545258210424
C         6.45609362067311    1.75926513952663    2.78509789594140
C         7.44042641605912    1.46771346589933    1.64055296690985
N         7.68017141102246    2.63955639505368    0.79533215111911
H         2.94667805940298   -2.88126913928984    0.76069192292586
H         4.36551356095011   -1.79211549368046    0.97398936743764
H         3.21535259334739   -1.60902793237290   -0.39834077535265
H         2.39870752805693   -0.94161650484126    2.37852715105221
H         0.57496001402999   -2.01778708587284    1.00624958568329
H         1.09065485175923   -1.02370662188200   -0.46562990662260
H        -0.99448172823845   -1.37014671087629    2.22227713618638
H        -1.30966170234871    0.32105090481508    2.40689012490960
H        -0.50400320807006   -1.66233885939054    4.36826153074168
H         1.62944785565102    2.64871453175613    3.28636344701089
H         0.64614144846269    2.04667677960899    2.01569012117741
H         3.04513508277988    2.64020404521798    1.34840168187907
H         3.85772280131753    0.41304771745272    0.36437259117599
H         2.17750339887498    0.85671282466229   -0.08744112299692
H         3.21367161653850    0.41144175491853    4.28773872715366
H         4.87977848061504    0.41946017150731    4.28137614386087
H         6.53956063988125    0.88258883864738    3.43863286875534
H         6.87064689970760    2.60418028544621    3.34839292372918
H         7.19854662013654    0.56931535521322    1.06177707797009
H         8.41699872061624    1.33241134970791    2.11647562416030
H         7.64652289581398    3.53304573657667    1.29224204650852
H         6.93143514191229    2.72005594643510    0.11171598936100
