39
 energy: -54.525066243918 gnorm: 0.100360847094 xtb: 6.4.1 (79825abcba525fcdf90b791dcacef51065a7a4e7)
C         2.76368838755400   -2.59207485815577    0.78442322880302
C         2.25068433997516   -1.24059594850517    1.29223399216796
C         0.76952756321194   -1.24319385324060    0.88422320437645
O         0.15268399504038    0.03770253252141    0.97040314078701
C        -0.55788939203239    0.45586685576658    2.11829675739113
C         0.34541809092985    0.22389572892768    3.31500458590302
N         0.18795165841350   -0.71944977938424    4.18642688631974
O         1.44172485131186    0.98521693465230    3.36284736737716
C         1.83266793689807    1.87452586788607    2.29946058126393
C         3.05257723299725    1.27333327978706    1.57992193342673
C         2.86797526173368    0.03327013545501    0.67027046147983
C         4.25832728625003    1.14926605708909    2.55023462949872
N         4.07110642303673    0.50575281112251    3.75167879790909
N         5.36022729775345    1.68661187940939    2.14869270947962
C         6.59000896857140    1.65338234197594    2.95430271908206
C         7.58450883070941    2.65634051494497    2.34689720277987
N         7.68047573645669    2.44626930823385    0.90060809368159
H         2.33565972477390   -3.42499513465489    1.35117646054670
H         3.84758493977808   -2.69371326970896    0.90616369402865
H         2.48757335152680   -2.76384841005293   -0.25393661631626
H         2.30736908910853   -1.29531839327618    2.39182018726088
H         0.28644803800795   -1.96151123164360    1.54277652759183
H         0.58470929205611   -1.54823974067513   -0.15356277830399
H        -1.51375968126249   -0.08096179849452    2.14659479096166
H        -0.80014765583467    1.51818338584039    2.07675157639839
H        -0.73434135172576   -1.15615308579375    4.03694279771784
H         2.05890478996109    2.86945641373639    2.70941957283057
H         1.02042256277474    2.06000593770801    1.59469579377850
H         3.53034224372530    1.98470299710112    0.88259881695226
H         3.87428300583439   -0.20482686308924    0.29922360471814
H         2.12974171606328    0.30028721610566   -0.10012357853382
H         3.12666060989839    0.27768492469786    4.06019747463737
H         4.81666705359760    0.48695468629866    4.43669373589558
H         7.00227273430571    0.65456945206501    2.76709308706474
H         6.48181179016023    1.88980545665178    4.01987054729712
H         8.55827738773606    2.35540053771562    2.74916137399897
H         7.33096285319113    3.63326421274258    2.77096916730522
H         6.74073129981690    2.21923306151317    0.56637792133219
H         8.21235627769461    1.59373635090825    0.74342068102563
