39
 energy: -54.529907037838 gnorm: 0.102602241825 xtb: 6.4.1 (79825abcba525fcdf90b791dcacef51065a7a4e7)
C         3.43800479293880   -1.43614366485237   -0.04956616188609
C         2.53324207240163   -0.59699015251633    0.85860011160142
C         1.11122125771453   -1.04641297290338    0.48957317230733
O         0.00203296412615   -0.40663459938731    1.11327461296019
C        -0.18740976673166   -0.81304581015163    2.45356453835334
C         0.68350102432339   -0.35807568483065    3.60959275792189
N         0.88492080734584   -1.04344687335841    4.68837432913462
O         1.22661675974574    0.86208520777493    3.61407963624319
C         1.30441037085690    1.85300045994111    2.57171048587065
C         2.66054777518927    1.85064118038006    1.84491419428149
C         2.72803174231386    0.91673635091181    0.61099037895403
C         3.91246147225107    1.63866030055394    2.73850738451144
N         3.81205973193034    1.70977070830920    4.10872336965186
N         5.03939789265873    1.58793325336761    2.11272694648820
C         6.23290882655737    1.17409216172576    2.86554953882429
C         7.31064917821750    0.88976854188981    1.80652529474661
N         7.61772683674233    2.14201865826577    1.11178454873217
H         3.23081570799432   -2.51025091949847   -0.08881202231061
H         4.47470324977761   -1.28118158302312    0.26859403422367
H         3.45800777999089   -0.97433618377929   -1.03458929330219
H         2.82780919018679   -0.81803355007831    1.89767063001144
H         1.08000179505748   -2.09814588525726    0.76511154174298
H         0.95888119141677   -0.90479097226268   -0.58789898457528
H        -0.28430869111505   -1.90536588156778    2.44255245823833
H        -1.16324218158951   -0.38747904402181    2.68930913872517
H         0.35281141063481   -1.92688278033368    4.67941556242043
H         1.18799210876645    2.84075554107702    3.04066994424303
H         0.42342144678983    1.80086718720687    1.92985423896130
H         2.88187318123374    2.83183505955058    1.38792465924703
H         3.68457697839736    1.04491446316451    0.08600199028219
H         1.91863926688940    1.12555644906138   -0.10390251649334
H         2.93866079157041    1.29112312166511    4.42666224675517
H         4.57976834558083    1.53866811971462    4.74653751063857
H         6.12518652614896    0.23374119426614    3.41941956837046
H         6.44455153235048    2.00939032850840    3.54416699911543
H         6.97925624293636    0.17749122328909    1.04268874223967
H         8.24657607527604    0.53535958215484    2.25030185779407
H         7.97147142163988    2.78037666824077    1.82854021955188
H         6.72962077385561    2.42509302713608    0.70490156910236
