39
 energy: -54.524873523179 gnorm: 0.121648406296 xtb: 6.4.1 (79825abcba525fcdf90b791dcacef51065a7a4e7)
C         3.33761037041296   -2.04190110654783    1.10272600404349
C         2.30932919225725   -0.92403072477379    1.30408093559770
C         0.95583807170378   -1.42188041701352    0.77444669789521
O        -0.09358908231631   -0.46430226925297    0.87625661324128
C        -0.48143824720453   -0.12387124382826    2.19197520781089
C         0.47014148386963    0.31528372817988    3.28902741334714
N         0.46105251836220   -0.25593419541278    4.44993254443817
O         1.16460386167065    1.45377184507325    3.36219999394949
C         1.66533390185060    2.05205756432428    2.15148865597523
C         2.99122716985308    1.63382358099741    1.49237222276793
C         2.69044880024852    0.40094080496390    0.60420964095049
C         4.20696347633670    1.34652989667779    2.41442438712125
N         4.08721122432999    1.40001870654887    3.78388683988433
N         5.24075028278229    1.02092129515212    1.71483595016795
C         6.46588418918864    0.52261897829443    2.35765503069228
C         7.35660978935992    1.73981023201320    2.65589971600130
N         7.59604275487560    2.56046378073218    1.46665989462323
H         3.03606650726559   -2.85049086891835    1.77609651719654
H         4.35847215916624   -1.74995185694353    1.37215074490107
H         3.42951559295151   -2.29549255686718    0.04859999441803
H         2.18241265748129   -0.71857496541373    2.37970988746546
H         0.74565677696962   -2.37944157294711    1.24555031580224
H         0.95118617247659   -1.60738979653438   -0.30711474986425
H        -1.08663221204583   -0.94065453770683    2.60341063176105
H        -1.09298219946765    0.76036399875737    2.01011397035172
H        -0.17413409477773   -1.03699890059252    4.67388690197831
H         1.65280881012169    3.12335829866113    2.39906519862025
H         0.92369543778066    1.95507987734921    1.35687772177223
H         3.30515129086232    2.36064333458555    0.72182014946318
H         3.58616940684325    0.28554086358480   -0.02140101159051
H         1.91031982624349    0.69760106309245   -0.11215991945118
H         3.13290096131371    1.13665452382859    4.02700795415690
H         4.79413331767426    0.91231434426820    4.32041746676488
H         6.93483723882424   -0.06242720930254    1.55738004847662
H         6.33909157843382   -0.07953665913101    3.26560301298438
H         8.31130627081750    1.50943042637063    3.14178685083663
H         6.94615920709860    2.43461697504894    3.39568104479462
H         6.72783033054711    2.96614239393863    1.10887934698326
H         7.93345974648177    1.83927722506390    0.83384320540777
