39
 energy: -54.525242694283 gnorm: 0.120812505768 xtb: 6.4.1 (79825abcba525fcdf90b791dcacef51065a7a4e7)
C         3.17007827011550   -1.53252482860804    0.20955719635404
C         2.31776133440445   -0.43387473985483    0.85303524978287
C         0.88486035816917   -0.91525065108732    0.57848656440891
O        -0.08827370657258   -0.05341722505127    1.16061349357528
C        -0.50635288057467   -0.37740376925295    2.47121572744935
C         0.71674109411193   -0.31614831883837    3.36685712896221
N         0.98829216300090   -1.27000154538824    4.19781879308070
O         1.59042538343386    0.68687130173010    3.48691883390080
C         1.54692366097399    1.91272931646426    2.73201615481164
C         2.68147183093600    1.96517789975990    1.69403894071215
C         2.55106445849059    1.04234268730979    0.45683668387333
C         4.11740037412063    1.69664848528172    2.22009387387504
N         4.32989248033145    1.03669785184233    3.40834524658249
N         5.07196162466141    2.21682018851434    1.52554775427410
C         6.47113545015846    2.30672596564342    1.96906122397264
C         7.25269518259062    0.98810063035819    2.08859418258114
N         7.04070507906927    0.39045418242296    3.40881032358486
H         2.77860321323381   -2.51808159357468    0.48084872768629
H         4.13410840843888   -1.39809449401439    0.71210791823056
H         3.34729582951273   -1.40170273345384   -0.85600197744383
H         2.55404257873072   -0.51496128230297    1.92676411029297
H         0.78170541056576   -1.92642133493583    0.96569589949688
H         0.66048507240049   -0.97764997887585   -0.49388118463365
H        -0.70854836985358   -1.45205860204507    2.55432872882085
H        -1.37672896256447    0.24033632130194    2.69431688359928
H         0.33328852843802   -2.06449400005497    4.13923856787931
H         1.70704902968963    2.78290995925093    3.38491875272151
H         0.62071952759529    2.10950718363741    2.18955584372504
H         2.81542646012155    2.99587492700558    1.31949173927002
H         3.46794680903656    1.19585496349301   -0.12863916735149
H         1.62791454090643    1.33987522386063   -0.06187565790304
H         3.57199125467925    0.49888428957497    3.82729505065202
H         5.27823827810668    0.69366423263490    3.50014767462984
H         6.54849283410991    2.80882793300312    2.94093852687742
H         6.93744046837409    2.82072835623055    1.11970941737954
H         8.30199993207127    1.28411946178999    1.97932878923418
H         6.93654011523749    0.19545795542971    1.40283470322162
H         7.29365736561853    1.08844360482859    4.11251535950794
H         7.64547348648115   -0.40179909720922    3.61131254309286
