39
 energy: -54.526340715356 gnorm: 0.117228720654 xtb: 6.4.1 (79825abcba525fcdf90b791dcacef51065a7a4e7)
C         3.58600286436056   -1.62905392318825    0.57402817324317
C         2.59416385452047   -0.63662604818687    1.18956247101601
C         1.22321138702753   -1.11551329948882    0.68810331000091
O         0.15362397176836   -0.21016514348974    0.94294836033395
C        -0.46588996899065   -0.30311799915215    2.20983349051330
C         0.55564737084562   -0.21996556623400    3.32850760039340
N         0.83456734648072   -1.21343862761334    4.10907673425535
O         1.17887086823963    0.91458905026983    3.65739315775301
C         1.43106815133271    1.90221783323468    2.63980570053127
C         2.80251230626087    1.90181530080330    1.94231889721989
C         2.77255119605040    0.85036091560204    0.80528489029489
C         4.06517691069902    1.51035207710288    2.75666969384297
N         4.06462195290487    0.44686829255712    3.62938440305863
N         5.10386700026258    2.25359694875294    2.57536876111992
C         6.45481950738829    1.88133245269821    3.02126235969807
C         7.15774853111959    1.13994332063880    1.87229349122117
N         6.92897337993391    1.69092288574661    0.53469295779690
H         3.46757654542818   -2.60492874363170    1.05550246584122
H         4.59889872159690   -1.24997192115032    0.74815934813462
H         3.30864824395204   -1.64003356550116   -0.47806055977574
H         2.47842383195725   -0.72124367628823    2.28260483918385
H         1.06551505639318   -2.11201565152429    1.09449363186120
H         1.29620591587109   -1.13677317477574   -0.40662512825801
H        -0.83840840271528   -1.31483852544729    2.41064532096336
H        -1.22757138296897    0.46087819382358    2.36820872489747
H         0.29653171095279   -2.06084083499356    3.87220795374323
H         1.32122146139775    2.84108408092937    3.20158871451027
H         0.64943964478725    1.97014432210392    1.88133244734312
H         3.05070502792947    2.89132302292056    1.51824268574047
H         3.68388476996833    0.96305150974994    0.20213219143293
H         1.91545407895702    1.22449187728593    0.22631647006504
H         3.26621562260196   -0.04041807400958    4.03469409597115
H         4.80832783925942    0.42226244313599    4.31622907283942
H         6.56268480979215    1.38403909302978    3.99270480512882
H         6.98798492400459    2.82502212750932    3.18925566771534
H         6.86909412589251    0.08542420062779    1.79966711838992
H         8.23635588698961    1.07560919891488    2.04827585872177
H         7.00762773982599    2.70920116084986    0.59211870567137
H         5.95532844507031    1.49577611967280    0.31480545080402
