39
 energy: -54.526896215455 gnorm: 0.103753012943 xtb: 6.4.1 (79825abcba525fcdf90b791dcacef51065a7a4e7)
C         3.40924341873738   -1.99478980406911    0.74718459525540
C         2.49222581320000   -0.91106342670237    1.32351437833594
C         1.07135211985417   -1.24246783875352    0.84227222542035
O         0.11650500492904   -0.18563980303914    0.84235234619005
C        -0.55504128161220   -0.14397519509711    2.08522214102364
C         0.39040830688913    0.04568191711641    3.25656319575119
N         0.51185108229692   -0.84464138019508    4.18750321346790
O         1.07283464445781    1.17704297191256    3.45176528996512
C         1.47930900954529    2.05023382029880    2.38087096993524
C         2.84916714749759    1.73679204373498    1.75430093102797
C         2.81144743883078    0.51119006191829    0.80784579910469
C         4.06814042913258    1.51387018680985    2.68979149426806
N         3.80445550745011    1.36468717532149    4.03174669081954
N         5.22295925568216    1.65161688510474    2.13159850088511
C         6.44524876194695    1.46338227982331    2.92724336518177
C         7.68584322472556    1.76374952194948    2.07015443773996
N         7.55420730191296    1.39872065442766    0.65788050794461
H         3.43991784095559   -2.82292228878820    1.46232767040655
H         4.43466721874959   -1.64575521508925    0.58389427266801
H         2.88985233440699   -2.37179278317088   -0.13147261472577
H         2.52412062943907   -0.94868127550787    2.42481593838971
H         0.71835623942233   -2.10714585376108    1.39973433058222
H         1.17083326971769   -1.67831661849945   -0.15990035231668
H        -1.20356565335413   -0.99564060724527    2.32345721670262
H        -1.28030284402459    0.66919219182774    2.04416195938803
H        -0.10977527635422   -1.66408690345924    4.11154687348241
H         1.58561495436076    3.02866152091557    2.87129381295590
H         0.72303893535629    1.99678154491555    1.59599057149813
H         3.18580776852520    2.55011528551050    1.08666016253098
H         3.83707601213951    0.63274044328105    0.43323563172828
H         2.18307070695839    0.64447011187541   -0.08499963543078
H         2.84526651176150    1.11323078320751    4.26818440141835
H         4.55168305180730    0.98459544102163    4.59976145310412
H         6.40296620078235    0.48010447103028    3.41099224750605
H         6.29785988380154    2.15674694969940    3.76423755487049
H         8.52247648978793    1.22769535648255    2.53199558565752
H         7.96698361559191    2.82148483418309    2.04449135397815
H         6.76598806231964    1.93541162419816    0.28768042077915
H         7.40456823857787    0.40704108523120    0.48877397933008
