39
 energy: -54.522475346837 gnorm: 0.108199500664 xtb: 6.4.1 (79825abcba525fcdf90b791dcacef51065a7a4e7)
C         3.51550157005363   -0.74922159092357   -0.12061877203795
C         2.41284658908872   -0.17483894511365    0.77480110649528
C         1.15447473928751   -0.96768379379041    0.38983059639518
O         0.02217378200662   -0.32872197325426    0.97141537618215
C        -0.18400942688288   -0.61248673116862    2.34050329280443
C         0.94070821033667   -0.51212712627227    3.35382594299689
N         1.26698464847879   -1.54125197932108    4.06693109686243
O         1.56982418859182    0.63745473097573    3.61162827420670
C         1.41138600577256    1.84430199470408    2.84161830697527
C         2.54927231463913    2.10428331189308    1.83913560575212
C         2.27941740642144    1.34382183828643    0.51694915866542
C         3.97438862773203    1.84379992731796    2.39763761532697
N         4.30599981225221    1.81375250040092    3.73246352599683
N         4.83010823580122    1.68866619803365    1.44483251764210
C         6.25100645264311    1.33319338491907    1.57583617831204
C         6.67328197156212    0.22335411099183    2.55248180425748
N         7.13948742223497    0.82077216108268    3.80581172355457
H         3.44061548082750   -1.84126468582327   -0.11780686333862
H         4.51496368588204   -0.56697803650711    0.28907088506808
H         3.42964728143641   -0.44382327211632   -1.16143467679938
H         2.57273492464287   -0.37034155852380    1.84788636369739
H         1.06043774530407   -2.03006617917517    0.60322898375514
H         1.13890636018058   -0.81046272287772   -0.69610204351757
H        -0.57848263765437   -1.63384413002659    2.40290311475972
H        -0.98181274786288    0.09831464714286    2.55776519001653
H         0.75325945113491   -2.40157275804992    3.82277081873361
H         1.35797165334536    2.60593677251341    3.63294356233591
H         0.58183321151586    1.80344882135153    2.13379629369686
H         2.52817388444878    3.20297777338223    1.72515692446472
H         2.97897027447905    1.66169499755255   -0.26829199667258
H         1.26838929536142    1.63039035655514    0.19214996633931
H         3.64953433144590    2.28874896513077    4.35101672872304
H         5.29690497643419    1.87597385555518    3.93169945773911
H         6.81383741270716    2.24709144916783    1.80088656607223
H         6.61382745759518    1.04898364564055    0.58053569534945
H         7.39760296869041   -0.37127333410357    1.98469326597143
H         5.79438947196884   -0.38792627683438    2.78136334572159
H         7.87399561059943    1.49938595394613    3.59050749365726
H         7.67795124104476    0.14624224623367    4.34384828732290
