39
 energy: -54.527891028262 gnorm: 0.095484214005 xtb: 6.4.1 (79825abcba525fcdf90b791dcacef51065a7a4e7)
C         3.04433518702416   -2.13727659560148    0.39828417496031
C         2.30490199338654   -1.01112205681606    1.12804762164414
C         0.81847641225742   -1.28929843045815    0.85700917569476
O        -0.06154846856915   -0.17770717464632    0.99316934230657
C        -0.72804202949539    0.03050868402310    2.22193625948453
C         0.27661364493294    0.02967456952764    3.35884030385092
N         0.29493992551291   -0.86069663039068    4.29744376078929
O         1.21995529113373    0.97121809804224    3.44480342678597
C         1.65579303524062    1.85844419578547    2.39724741471968
C         2.94825842814305    1.56526304744867    1.61563041996698
C         2.76928606679223    0.37905819869201    0.63573895399847
C         4.17872395141192    1.51946510828401    2.56145800013019
N         3.97563989217735    1.28914274841577    3.90247909992772
N         5.33240239216537    1.76386978458238    2.03853108746931
C         6.47206946976156    1.88597018055281    2.95979387823640
C         7.78408299663604    2.18746948231922    2.21708584374391
N         8.10544559161453    1.28961555952454    1.10547612517455
H         3.16104713329364   -3.01026214315208    1.04824456507121
H         4.03403349867542   -1.82690466492607    0.04593581912959
H         2.47322347525245   -2.48542664867605   -0.45994644158075
H         2.53717366727031   -1.13538278601113    2.19851791729651
H         0.50247005225829   -2.10086882729651    1.50857009361063
H         0.58939966056126   -1.59210281892447   -0.17257514514975
H        -1.40208169837002   -0.78166098859070    2.51980319371292
H        -1.17919314822632    1.02111904174650    2.15802042444270
H        -0.42578638316145   -1.59703454691480    4.34260681809392
H         1.76450385818190    2.84007705206273    2.88068838992700
H         0.80440497587479    1.95171032813201    1.72102362801352
H         3.13277639093018    2.42911364074557    0.95209361555102
H         3.72355453097811    0.19642376235372    0.12286703750563
H         2.06821432215315    0.64574535182618   -0.16872996692929
H         3.22641259299390    0.64122861372795    4.14339896667727
H         4.80043757095356    1.17095827641946    4.47797952238079
H         6.60582877940760    0.92656558900545    3.47388271795355
H         6.32029608162396    2.70781421759821    3.67012798713211
H         8.69607002171774    2.03177312806562    2.80415044877359
H         7.82084149747773    3.22167364631757    1.85991211932542
H         7.23454451176073    1.22077402330764    0.57334172060660
H         8.20889507154088    0.36260234592920    1.51089189198735
