39
 energy: -54.511549107190 gnorm: 0.131911783144 xtb: 6.4.1 (79825abcba525fcdf90b791dcacef51065a7a4e7)
C         2.58070293861488    0.03610727359644   -1.42858176663931
C         2.94390154977301    0.38233522431584    0.01908986841280
C         2.48463016986933   -0.76596776937530    0.93055846098713
O         1.08494866885742   -0.68204983211291    1.18049445904443
C         0.72329082474017   -1.14223380972021    2.46691196822337
C         1.43638630433080   -0.57246714868367    3.67883005206567
N         1.94795577996682   -1.21268993033921    4.68007164559123
O         1.70749627614981    0.73473258315675    3.71776190994903
C         1.14180724845256    1.54636803165153    2.67098486402505
C         2.30577734946659    2.15679076704705    1.87104434294704
C         2.30039566758473    1.74142228216908    0.37881768163029
C         3.67538723619722    2.01883162904770    2.58928434016914
N         3.60455468405467    2.83715703773811    3.69289448957674
N         4.64596516150205    1.42116101117352    1.98519128464451
C         6.03866367472140    1.30885334741657    2.44372424262851
C         6.41193229095279    0.02911290096489    3.20977348694953
N         5.95572011678732   -1.22229767728693    2.60073017638917
H         3.10132680805340   -0.85320749048630   -1.79769420219037
H         2.83644043247074    0.89854729039151   -2.05370447591682
H         1.54534653121436   -0.23573031750860   -1.62371831263160
H         4.03263796978722    0.53036076954056    0.10875015429046
H         3.07791636569271   -0.64470435397824    1.83407649676894
H         2.71234188898871   -1.77976853119677    0.57761948150268
H         0.91192104486120   -2.22243498009845    2.45085359092014
H        -0.35863029373125   -1.02435983270461    2.53387390571624
H         1.72009471470060   -2.21133852709029    4.55982196671104
H         0.69851566955280    2.35870947395817    3.26489585393656
H         0.37410116143554    1.13128735987079    2.01587096031585
H         2.29931905581535    3.25993570760500    1.81108302214112
H         2.80656051586396    2.52326869538843   -0.20387827221406
H         1.23652773749306    1.75584124700258    0.09994315868151
H         2.68062635445388    2.93320857299045    4.11278398790919
H         4.31074288215880    2.62396256495632    4.38665659272305
H         6.45580901481009    2.15383405231125    3.00464617054754
H         6.68662536105789    1.32112371081215    1.55883305991197
H         6.08564178125303   -0.01844527287809    4.25470374834409
H         7.50492745903713   -0.02563668372268    3.18033630627347
H         6.33018696007428   -1.14998909241519    1.65156163337830
H         4.99807484288652   -0.88305137808330    2.55335175349145
