39
 energy: -54.519737487018 gnorm: 0.100915127587 xtb: 6.4.1 (79825abcba525fcdf90b791dcacef51065a7a4e7)
C         3.32129904666273   -1.93761240464327    0.32410725138649
C         2.40935954119632   -0.96321743595948    1.07674326407548
C         0.95856311463644   -1.42348652268590    0.86782450713794
O        -0.06116870911828   -0.52241140110274    1.28833508901470
C        -0.22990276862221   -0.46055169240119    2.69016884325712
C         0.91714116491803    0.10851461384323    3.50401057824583
N         1.40670583510978   -0.42444672464497    4.57655516271227
O         1.30492438623409    1.36013979894269    3.24546467677927
C         1.30377455700695    1.95207408020950    1.93241067131172
C         2.67574506582081    1.69289688976334    1.28598108812739
C         2.59224126269431    0.41909590064026    0.40862227826936
C         3.87716377410236    1.49638040714207    2.24967551362409
N         3.89651784729662    1.88634746177928    3.56883438768523
N         4.85705067715000    0.95517626752044    1.60852045778229
C         6.18077107348636    0.64358791372329    2.16811998296703
C         7.30213196557377    1.67460704379534    1.95968340235280
N         7.48431230005685    2.59584600042384    3.08361437968504
H         3.48914619490488   -2.88371295695152    0.84841158253297
H         4.23539149841839   -1.36846774728830    0.12288051775294
H         2.84352696053279   -2.24469882769385   -0.60399220541874
H         2.79416766075768   -0.77710738302495    2.09290431160303
H         0.83705362070651   -2.43348934617106    1.25275034437668
H         0.82891221752137   -1.45522568825069   -0.22139255395217
H        -0.46389140817657   -1.46528878910084    3.06222592418971
H        -1.15696139618120    0.09770520002925    2.82374659162324
H         1.02188774121656   -1.33087367598133    4.88312469397830
H         1.08117173525470    3.01092315253386    2.12842829572601
H         0.52474434313462    1.42087770276182    1.38306455837958
H         2.96197270708259    2.53196033811763    0.62672995256500
H         3.60765914097568    0.54652782621095    0.00898633517651
H         1.88309856621621    0.49260449472457   -0.42893786158506
H         3.04186619692212    2.13976636859305    4.06333012507930
H         4.72451085384881    1.61480803211294    4.08473496825306
H         6.54128944203019   -0.23326829815161    1.61695237740590
H         6.20891074103761    0.39249226894403    3.23545143976348
H         7.13110968159673    2.27144072055895    1.05682822737621
H         8.27527857210748    1.19624272470206    1.80916510706735
H         8.13924405893307    2.29055782057337    3.80765746270359
H         6.67835997682324    2.93873881039270    3.60060819539612
