39
 energy: -54.523767655587 gnorm: 0.109557935704 xtb: 6.4.1 (79825abcba525fcdf90b791dcacef51065a7a4e7)
C         3.47626668887924   -1.79140476147191    0.67638867110454
C         2.43631134454984   -0.80353899260054    1.21504838484817
C         1.06832472910317   -1.42339341808949    0.89147758789495
O         0.06252973205780   -0.41494110310887    0.89582158265453
C        -0.59418035511121   -0.07082327326434    2.09904660760778
C         0.32590328620075    0.06762621695805    3.29744656103090
N         0.22542402894712   -0.77185501319871    4.27685884710325
O         1.30841358076032    0.96516951332470    3.41092327497248
C         1.53003282255918    2.03175562262670    2.46870391349693
C         2.82697175763251    1.72432383312332    1.70008032868478
C         2.69393611257379    0.60671062640475    0.63587049622430
C         4.08216123354994    1.66986750013612    2.61236675105393
N         3.92815618985323    1.01555259579758    3.81269317756690
N         5.24841452599488    1.91601397446795    2.11898527403542
C         6.41657583128037    1.65407510008345    2.97295357476291
C         7.72858857708666    1.78405841106675    2.18198996461559
N         7.60200218722877    1.17834839598160    0.85451755038836
H         3.56565922046797   -2.69122023197890    1.29324768728101
H         4.45156472010730   -1.29614271772184    0.61729461945399
H         3.22105005697268   -2.12014956410941   -0.32896110081646
H         2.55204653853586   -0.80277048944142    2.31136142870773
H         0.81094717194961   -2.19130124643537    1.61750273956043
H         1.05212702711852   -1.75996449656571   -0.15287296505921
H        -1.28153812105406   -0.84908707054619    2.45191847545269
H        -1.04565067817270    0.90516576139197    1.91862647248332
H        -0.52366741006049   -1.48072887596272    4.28314560033387
H         1.61085870334160    2.95150048861411    3.06592485470312
H         0.70809887969693    2.05465731691404    1.75125082938324
H         3.01121712899881    2.54425786761000    0.98291393344218
H         3.55724093552846    0.50347369582723   -0.03574557964916
H         1.89000006703528    0.94038245308445   -0.03654590499060
H         3.00610740952366    0.66743693405629    4.07311240036137
H         4.74340438834501    0.84035633095629    4.38726793041875
H         6.25295542953871    0.64338281942415    3.36584736525697
H         6.53902958919770    2.36209179813081    3.80166025068813
H         8.55153540452257    1.38588557751507    2.78599613177301
H         8.04164755957748    2.80879285741452    1.95745512514879
H         6.66612206232333    1.44053771079896    0.53551907543088
H         7.53245416431828    0.16380540881670    0.87133527158076
