39
 energy: -54.521191365621 gnorm: 0.110206002733 xtb: 6.4.1 (79825abcba525fcdf90b791dcacef51065a7a4e7)
C         2.85960906732368   -2.50948889554858    1.01108587597195
C         2.09802096507774   -1.23610279729224    1.39320049685929
C         0.59610534143739   -1.42450495680168    1.13040962598945
O        -0.02177296217722   -0.14181109446237    1.09114917350103
C        -0.59398758893930    0.31632949427164    2.29950066003193
C         0.49698104100312    0.29243201386898    3.35358840856512
N         0.62455157308441   -0.61981259842155    4.26221856885810
O         1.46907368665673    1.20743589661765    3.31369865214887
C         1.88257011501788    1.94413728796102    2.14716957846894
C         2.95213935184908    1.25105237458637    1.28519392073477
C         2.58195524547313   -0.04899394805993    0.52879218992921
C         4.26730043594376    1.10835042392764    2.09804081576770
N         4.16592507214457    0.89080580938109    3.45267228527093
N         5.34698031354876    1.20877649456102    1.39920889814512
C         6.66405471163755    1.10558014565680    2.04507281299379
C         7.17775512838727    2.53852948539253    1.82905287513727
N         8.00063728968602    3.03535644152825    2.93409571212441
H         2.56886480373469   -3.37041041888397    1.62137749047322
H         3.93612764595312   -2.39830695023922    1.18058269116932
H         2.71273145893682   -2.94486953084434    0.02477583111430
H         2.17405585281636   -0.93085577881866    2.44977063996609
H         0.07534405863949   -2.03878257931315    1.86151074872409
H         0.47937609938782   -1.87682075303604    0.13743669570289
H        -1.43450967253857   -0.30116010775754    2.63847412553887
H        -1.01985209085635    1.29216856371009    2.06432198603121
H        -0.07624639740548   -1.36394827910071    4.39941898230306
H         2.18764270980765    2.95009254367055    2.46984745700751
H         1.01435695719833    2.08912816648160    1.50217161462000
H         3.17757985845912    1.94618322489689    0.45661955409009
H         3.48166071168084   -0.42346420797679    0.02152172081739
H         1.77768788064025    0.08444795349029   -0.20954453676667
H         3.22712340713068    0.64631769967946    3.76580745181869
H         4.82912070282304    1.21148387424678    4.14750796508976
H         7.26764917145556    0.37815322745356    1.48905136031370
H         6.64682422391508    0.92055602013831    3.12604760423512
H         6.35597144313536    3.21376613791816    1.56574018204823
H         7.90327997765978    2.59071782768229    1.01088872442692
H         8.84657443797809    2.46523358969681    3.00976041146356
H         7.53305872068547    3.03899609808275    3.83729794346090
