39
 energy: -54.517949296028 gnorm: 0.115565164959 xtb: 6.4.1 (79825abcba525fcdf90b791dcacef51065a7a4e7)
C         3.72106423027188   -0.89984147100545    0.00170173170889
C         2.60816296439624   -0.27749828545745    0.85121918968211
C         1.33636270722394   -1.12734375842469    0.70772102201318
O         0.21063160242283   -0.47514503578032    1.28736300502322
C        -0.00669345095197   -0.86974987029247    2.62694970993122
C         1.21987043774499   -0.53534228727718    3.45495770131758
N         1.80642353002687   -1.35691802149781    4.26430437269694
O         1.45007183833974    0.76889880285375    3.62743934764158
C         1.18355131860784    1.75275745483905    2.60985038284133
C         2.39808730514605    2.16065199640295    1.75786945348308
C         2.48539545291883    1.22860186386025    0.52378672966196
C         3.70212293979946    2.12407883476264    2.59982318963561
N         3.65861060724198    2.82390450471997    3.78345310478990
N         4.68519278562003    1.44956796577026    2.10710738998348
C         5.87076620981157    1.06807730755270    2.88899944040454
C         6.71232735336924    0.12392975213509    2.01478163911076
N         7.48121817624525    0.82642201825503    0.98502280281150
H         4.11996263024532   -1.85096050441171    0.36834406614629
H         4.62835880564659   -0.30785501017210    0.16403297381125
H         3.57638480560071   -0.95550459049048   -1.07528773744955
H         2.90749729119602   -0.36101325655531    1.90891561470361
H         1.61057280734293   -2.10229812737997    1.10434548195181
H         0.98707795786638   -1.31169792008116   -0.31610720509403
H        -0.35728441813742   -1.90090118143081    2.75535040700519
H        -0.83299261633851   -0.29072255673703    3.04033638093494
H         1.29977316636526   -2.24918176232021    4.36847006357662
H         0.73862268857667    2.57504076600482    3.18866379260130
H         0.29500773397752    1.52702354188790    2.01792698000139
H         2.18374851620661    3.21897632929634    1.52425803979433
H         3.41449324934823    1.50363971191079    0.00595209815534
H         1.60880804081000    1.44105306318248   -0.10569946230902
H         2.72923188983144    2.97715767266951    4.17325473168363
H         4.23992379994163    2.43243566367462    4.51440223048250
H         5.62833429785889    0.49231354904995    3.79030899115505
H         6.44254903301808    1.93396356055060    3.24444664132737
H         6.11174228554827   -0.71976054330924    1.65688389629665
H         7.48249216033717   -0.30267395989089    2.66544126418868
H         8.04379144045857    1.47389200775717    1.54239952175320
H         6.98066037807648    1.51009720815013    0.42248626151676
