39
 energy: -54.519313759282 gnorm: 0.105846500241 xtb: 6.4.1 (79825abcba525fcdf90b791dcacef51065a7a4e7)
C         3.18781094202378   -2.12849509701897    0.35333324214110
C         2.46577977800050   -0.98924269289212    1.08018611959020
C         0.98959602765411   -1.40590469945978    1.16724480899468
O         0.04076274023899   -0.35311127769421    1.02596528609970
C        -0.57634941491049    0.03736042401396    2.23598186289189
C         0.43166151384839    0.31635631949328    3.33505413608068
N         0.55906413555262   -0.41436604774352    4.39518933198758
O         1.31043057020803    1.32192652284142    3.35457123077341
C         1.59455903668358    2.09419600869889    2.17246752259365
C         2.89442138559045    1.57233471731474    1.53578413864503
C         2.72481103792310    0.42433255228675    0.50980965696264
C         4.01443476317399    1.23883699538868    2.55807660296853
N         3.85197969902687    0.32288768098432    3.57162198669741
N         5.13566167886321    1.78486125133470    2.22812538681025
C         6.31662369501199    1.48942507625126    3.05306225408691
C         7.59636297668513    2.07659388418318    2.43548902631342
N         7.90187311198174    1.83733824786434    1.02321708409728
H         2.90867662892094   -3.10787687226588    0.75466766362490
H         4.27339384137549   -2.03649881343366    0.46747916615404
H         2.95387343359393   -1.98295371849644   -0.69929574392790
H         2.85701438684990   -0.94169486448991    2.10973562496141
H         0.93601168752027   -1.86125332731120    2.15356346990575
H         0.76107785753891   -2.22678529339277    0.47576450265516
H        -1.26119177019208   -0.74001296875577    2.59564189934777
H        -1.13429817932992    0.88392188949941    1.83478574194375
H        -0.12303659983463   -1.18576286908732    4.45319962509409
H         1.73200314987711    3.12025872315420    2.54319747964701
H         0.69334282005606    2.12979911338021    1.55815445462337
H         3.41990268922788    2.33404139923987    0.93226270381488
H         3.59994582753283    0.45940692288395   -0.15346261305895
H         1.93237681905752    0.79266211199236   -0.15815381426583
H         2.92721221367475    0.32282447672595    4.00055290252002
H         4.54383828895720    0.49219431608437    4.29143200215530
H         6.36064192290082    0.42097969734663    3.29621428755073
H         6.24084106108624    2.04762567925648    3.99418201202797
H         8.46630899638410    1.88567099335179    3.07372793561405
H         7.33586801443692    3.11255636519945    2.67512754436942
H         7.00753305117225    2.07510521537311    0.58732994700627
H         8.05857363923615    0.84956398277568    0.83838153277509
