39
 energy: -54.526378304633 gnorm: 0.112610915511 xtb: 6.4.1 (79825abcba525fcdf90b791dcacef51065a7a4e7)
C         3.54409200446813   -1.23999647753900    0.12221946149928
C         2.58443149912151   -0.45378798092990    1.02136800683830
C         1.21174784093035   -0.93298482312855    0.52496602711115
O         0.10700358457450   -0.20190157022367    1.04810647815598
C        -0.25987258774194   -0.70486644564084    2.31691059971678
C         0.77262515960852   -0.46002408782389    3.40129302759312
N         1.31070466828702   -1.38384930793818    4.13005269264756
O         1.00854722031862    0.81647253549050    3.71543402412080
C         1.23706226186821    1.83015017421735    2.71806907622702
C         2.62234682855710    1.94294145638703    2.05806006591231
C         2.70009522853266    1.06925096149691    0.78137668661243
C         3.89494534178124    1.64972552229536    2.89785174457973
N         3.88319659793156    2.12473786970605    4.18891886554485
N         4.92738664729769    1.21960897338996    2.25502609800715
C         6.22488517967737    1.22812498657210    2.94705189106137
C         7.28004051794239    0.75687908263206    1.93291627543502
N         7.32629387210983    1.40930468175750    0.62246093113766
H         3.59190509595050   -2.24520269020266    0.55285658758623
H         4.54519779441049   -0.83340588745389    0.30236978832514
H         3.24855010547253   -1.19831735654636   -0.92413357496470
H         2.77563897893732   -0.71788769326385    2.07445326518603
H         1.10945865929647   -2.01112969485169    0.62585568985639
H         1.15970603919932   -0.67191578620651   -0.53962081658426
H        -0.27055841180697   -1.79840443763384    2.23484800331640
H        -1.27194853269570   -0.38360354580444    2.56474906265618
H         0.87448491223563   -2.28373063270675    3.87785120254801
H         0.89458241754511    2.76133872592283    3.19212784963497
H         0.56563479162529    1.62075091798924    1.88369750187152
H         2.64390624202180    2.93319332734399    1.56867041995544
H         3.58635037483879    1.32970381201258    0.18661844587356
H         1.83676920243314    1.33568622651993    0.15410138514717
H         3.01340797035201    1.87550506135073    4.65852231344714
H         4.64053441355077    1.92161307154393    4.82973026552862
H         6.23409286162522    0.54166017290686    3.80222282592907
H         6.41455511934071    2.25376482966007    3.28635344957919
H         7.15295957718913   -0.30086388473088    1.67671950561019
H         8.24813653302529    0.96251921961879    2.40089570476458
H         7.55054007255055    2.40728666262633    0.63343719604354
H         6.37350505022219    1.44687377327208    0.26862585614002
