39
 energy: -54.520968791290 gnorm: 0.118903003600 xtb: 6.4.1 (79825abcba525fcdf90b791dcacef51065a7a4e7)
C         3.49472630721281   -1.84941581663582    0.54729431174615
C         2.52210545306093   -0.83881511886283    1.16392635942221
C         1.09315694260451   -1.26338043757161    0.79223376099730
O         0.09537887722530   -0.26900037985473    1.00262800979318
C        -0.66446397804740   -0.22713768393355    2.19356126404115
C         0.22008893312522    0.09166548845094    3.38428174230758
N         0.02912198653055   -0.40321608645336    4.56440761261695
O         1.19342588028880    1.00603612096828    3.40241740530335
C         1.61545301136044    1.86976164391529    2.32986456182290
C         2.99070421036296    1.68825286734507    1.66421767943452
C         2.82644543752621    0.57022491414846    0.60481555341859
C         4.14455936458334    1.39418476045196    2.66064872514164
N         3.86487376730941    0.98730927433294    3.94472712915634
N         5.27979258644078    1.42986910753500    2.04898521522306
C         6.47747405850242    0.98320056508237    2.77597968700513
C         7.53690920131655    2.00281625642313    2.32667181795248
N         7.75785825960334    1.86454766912406    0.88543795085401
H         3.28270788428566   -2.85258002603868    0.93054841670812
H         4.55401577065428   -1.59947678670527    0.67146821925146
H         3.24856366571121   -1.90149188511045   -0.51130328702775
H         2.69984357652649   -0.68187320000047    2.24053023695396
H         0.77113223189258   -2.17358887676444    1.29309186500958
H         1.09886580471945   -1.47647681730608   -0.28422704775089
H        -1.23508161417197   -1.13464025965097    2.42488001341894
H        -1.35159674471680    0.60717613343950    2.04968465922455
H        -0.71812397230125   -1.09790793192100    4.71509394673451
H         1.53165448843126    2.83490510067183    2.85006855669489
H         0.86353996046297    2.03327842849739    1.55608951496121
H         3.25458912679942    2.63770699458272    1.16475056264747
H         3.76443312019830    0.49980947980870    0.03715191593414
H         2.02359416420810    0.95881658623363   -0.03878386830051
H         2.91320225529567    1.00700681306887    4.30956951631638
H         4.61259161531560    1.13605097450317    4.61125051576530
H         6.88477737833690    0.01181405034066    2.47077763491607
H         6.20998623497507    0.91914174948847    3.83776311687804
H         8.49785480993789    1.70591862082049    2.76146127090746
H         7.10858130680840    2.97954592680118    2.57372823569384
H         6.87206185357839    2.15978882936449    0.46761950159684
H         7.80839134603474    0.89421329854953    0.58491365437440
