39
 energy: -54.521877833358 gnorm: 0.115382289986 xtb: 6.4.1 (79825abcba525fcdf90b791dcacef51065a7a4e7)
C         3.62729560064029   -1.63103385599682    0.71046261048742
C         2.50415848620283   -0.64778062472946    1.05588449332384
C         1.15519892552407   -1.12288850230535    0.49473785210948
O         0.05091661167299   -0.31446711420897    0.88924252819132
C        -0.41568408958894   -0.53980583916576    2.20413488078263
C         0.36788739717134   -0.09684221551568    3.42547984295726
N         0.08263960482781   -0.45212916427656    4.63646213136747
O         1.32446545735268    0.83443853117540    3.46371547726944
C         1.45425175483937    1.90427202581790    2.50814752089813
C         2.77097187465767    1.75029530580327    1.72719529616301
C         2.80414419941156    0.77330675729636    0.52565741482530
C         3.99545268011200    1.52489687878451    2.65486705931440
N         3.95243973702653    2.13335108931070    3.88797792965710
N         5.08516678590324    1.02261806019341    2.18115909523386
C         6.33623408877625    0.88464624822118    2.94159911285982
C         7.32664795377549    1.70560833640203    2.09957882886619
N         7.74324449549557    1.20083299088956    0.78933422792427
H         3.63746070050949   -2.50334097139339    1.37163650311668
H         4.63071630248204   -1.20111500431645    0.80156431491507
H         3.44978477977046   -1.95027127079869   -0.31448334847388
H         2.38563255591747   -0.72790267071614    2.14896709471293
H         1.00443405228828   -2.11996642830165    0.90234516665525
H         1.08010516641274   -1.11107367412752   -0.59999127763024
H        -0.50040860733952   -1.61904373740410    2.37946627080364
H        -1.44336843666813   -0.17576901951116    2.18759605141748
H        -0.62111461317678   -1.20590307317616    4.65177732798354
H         1.46217943324278    2.74083702160874    3.22175276369354
H         0.64721568413911    2.02769814527158    1.78406356323165
H         3.08543777446103    2.67384954936599    1.20880880568803
H         3.78796817409304    0.80391573008859    0.03762595473272
H         2.04856048089995    1.13740746960602   -0.18590268878774
H         3.09244123253571    2.28737425265854    4.41319794909229
H         4.78563501500224    1.90471024903747    4.41615261632915
H         6.64401368973292   -0.16758813702640    2.96825540505473
H         6.36799921846465    1.32723932262356    3.94466424338670
H         8.21145056224345    1.93763660160395    2.70281490422701
H         6.84410027412733    2.65033490375475    1.82913113421879
H         6.93346114986460    1.03621325921614    0.18640293168761
H         8.04693097478582    0.24833045562895    0.97623173622732
