39
 energy: -54.528476008270 gnorm: 0.109994318755 xtb: 6.4.1 (79825abcba525fcdf90b791dcacef51065a7a4e7)
C         3.33422478661977   -1.58819832416161   -0.03747298289888
C         2.55383355170109   -0.62343619161818    0.86128378091216
C         1.06591297369285   -0.99725674073488    0.77970253771339
O         0.16009841923994    0.05224933856170    1.10628407786156
C        -0.47537040211081   -0.02048515534559    2.36657164775787
C         0.56286085783834   -0.17098157232515    3.46261512540510
N         0.83154001648634   -1.16897684414342    4.24100461052429
O         1.36445147114007    0.88254642959814    3.63958588856932
C         1.49405931255837    1.93247649347438    2.66216736006552
C         2.69548332150683    1.76918772293376    1.71492705265371
C         2.70125740220119    0.86224751591212    0.45924938361807
C         4.04907405283790    1.62143223941957    2.46104570562392
N         4.16112106412082    0.93618483149047    3.64869485106521
N         4.98236892354136    2.23631862229699    1.81681321014877
C         6.35093257464155    2.35338185696340    2.34198401821646
C         7.14168306831324    1.12435923241259    1.86437165129295
N         7.17636833452808    0.10074222074259    2.91131811032619
H         3.13586865389423   -2.55935192450103    0.42695083463979
H         4.42021553990427   -1.50491000997469    0.07944572483092
H         3.00328758052316   -1.57108593728556   -1.07387279355426
H         2.87725372323486   -0.63874414710329    1.91506866144963
H         0.75933148273681   -1.88158973786717    1.33377933611243
H         0.77512969923268   -1.23336010034340   -0.25175799229643
H        -1.17397250314860   -0.86456197011940    2.41308213389328
H        -1.02421882293481    0.90667076109261    2.53413892831538
H         0.26306897165386   -1.99282947737694    3.99243434989802
H         1.63796732524234    2.87901503223969    3.20299224908358
H         0.66157624536135    2.09564796368341    1.97573759282228
H         2.80942708362886    2.77948740196752    1.28263411454719
H         3.62108223488733    1.01380123052781   -0.12210676545195
H         1.81984957516669    1.21777364113863   -0.09438884020794
H         3.32910279687754    0.55770929183028    4.10000239086308
H         5.06160560574083    0.50007957978452    3.80489758491341
H         6.46228960863161    2.48293893299457    3.42524327436312
H         6.76084330317433    3.22793412300011    1.82220632762318
H         8.14006471241863    1.39130550170133    1.50025585265367
H         6.68189302187538    0.63505399866464    0.99968904786870
H         7.45063316490166    0.54036410872611    3.79329672078563
H         7.86256488864979   -0.62145560469774    2.70642344152176
