39
 energy: -54.525676835227 gnorm: 0.109507876976 xtb: 6.4.1 (79825abcba525fcdf90b791dcacef51065a7a4e7)
C         3.78917202582219   -1.46200163809982    0.95696404596424
C         2.58007721499942   -0.60768899220638    1.35165358450267
C         1.25970288489578   -1.04027498322622    0.69607296137671
O         0.17112239281640   -0.14932329011135    0.91926821190879
C        -0.52836044258555   -0.32728372299572    2.13437707206077
C         0.50451039258734   -0.38501854357365    3.24421001383909
N         0.79956876167824   -1.44675393906064    3.92224523460618
O         1.16636474248358    0.69904156519362    3.65718691359577
C         1.34267067267087    1.83525866555981    2.78976242620451
C         2.68042987805355    1.90226586452161    2.03262476986239
C         2.82601020182485    0.85161496870908    0.90380263582577
C         4.00188798191710    1.67868313572784    2.81652005952427
N         3.97682733688014    0.72342142544964    3.80620489597528
N         5.11994978497950    2.18380659492060    2.41783703425372
C         6.48773643971757    1.81653208557901    2.81374576432201
C         7.12677400294276    1.06305234213531    1.63569831679621
N         6.98125820110578    1.63301985734966    0.29441015965273
H         3.67835096116110   -2.42509937562603    1.46523109662923
H         4.65042708828511   -0.85692852899012    1.26045885877677
H         3.85035822273112   -1.66334881691024   -0.11058098937339
H         2.48603282594181   -0.62870412747095    2.44983915152024
H         1.01121683888204   -2.03599675765453    1.05639365053712
H         1.36555560107155   -1.14803195282675   -0.39084661934847
H        -1.04653020522044   -1.29318949680959    2.09973710294969
H        -1.22519399586947    0.50354824167911    2.24871307428103
H         0.25523841693809   -2.30160567984318    3.73090093317683
H         1.39848465662664    2.67166977100592    3.50140668835817
H         0.48154457994672    1.92582123996923    2.12560952258312
H         2.59070107064327    2.90404412121911    1.57550896562642
H         3.78480982777913    1.12658351302013    0.44324121705855
H         2.07147667064011    1.17925327081852    0.17364773893744
H         3.19276305671712    0.60450517325765    4.44673495586458
H         4.91942035400529    0.52134040159820    4.11627128683852
H         6.54121520625999    1.17504147248193    3.70158913363350
H         7.04484459111785    2.75701854544627    2.90403993745341
H         6.71978205183248    0.04572572860818    1.63896092273710
H         8.18479130894242    1.01575073211613    1.91294268689482
H         7.29320959907939    2.60458128626661    0.36603128539359
H         6.00174639034799    1.56950110306303    0.02806599301620
