39
 energy: -54.525941692639 gnorm: 0.110296597678 xtb: 6.4.1 (79825abcba525fcdf90b791dcacef51065a7a4e7)
C         3.41797145587788   -1.91794662093450    0.45070073212337
C         2.40165208244757   -0.91689702070488    1.00974885167598
C         0.96488965929424   -1.25250500411366    0.58151297309812
O         0.08993301748087   -0.23241478750792    1.05319648614401
C        -0.31062399837515   -0.17720232770244    2.40742738557075
C         0.68435130160955   -0.17572363174512    3.55281228556672
N         0.75774540892807   -1.05349482976072    4.50054867624532
O         1.47378223173147    0.89355119514246    3.68410418868472
C         1.59484862748080    1.76110676514984    2.54078070294155
C         2.86889651562472    1.57805076177151    1.69778628453195
C         2.69715912648503    0.53446840381120    0.56608736116051
C         4.13621854320739    1.36834076282487    2.56993835109450
N         4.09806862887805    2.15758743014981    3.69611034341369
N         5.08305343436145    0.71186704949953    1.98967457292617
C         6.39707107274440    0.73187401621756    2.64954730725699
C         7.42275296917837    1.51075252250360    1.80977266380358
N         7.05716850739351    2.91149901844884    1.58762631837641
H         3.15590774557562   -2.93788834140108    0.74939028304686
H         4.38265885984936   -1.66646521843129    0.90470311515119
H         3.38996369504298   -1.86156047386077   -0.63556489087150
H         2.34991743596177   -0.90478592914333    2.11087298651047
H         0.70275540110145   -2.22710282387427    0.98707786216221
H         0.88460253907461   -1.29012916125652   -0.51226439523313
H        -1.01276780554247   -0.99027287938317    2.62784548494664
H        -0.95539908083772    0.69900823292751    2.48126243870641
H         0.11471526711354   -1.83925335946705    4.31950880872415
H         1.63561157985643    2.75415245440832    3.01124316882435
H         0.74991766146358    1.71401273661649    1.85178677631902
H         2.98649393103797    2.50111599680019    1.10223004820406
H         3.49113320366091    0.71500096367401   -0.17149950496947
H         1.83408903372187    0.91760705811336    0.00207613909236
H         3.15293941941281    2.20330990275423    4.07534230402299
H         4.72681369679869    1.92803450059834    4.45600809692608
H         6.70065544469537   -0.31757947331367    2.74504574594711
H         6.30887571609048    1.05150757849399    3.69505832208584
H         7.38530236572666    0.88724712092559    0.90952547379418
H         8.43834806218992    1.44806813977053    2.21367831990206
H         6.45248083171271    3.22133471152962    2.35230241281952
H         6.44136382845160    2.92743074785941    0.77833773373797
