39
 energy: -54.522488160447 gnorm: 0.108137568106 xtb: 6.4.1 (79825abcba525fcdf90b791dcacef51065a7a4e7)
C         2.93349871963317   -2.41824304926680    0.78535892423131
C         2.15554027553249   -1.16729847344938    1.20661715472632
C         0.65539571964437   -1.33858270475482    0.92283384500466
O        -0.07064626212064   -0.17940683459463    1.32006533075719
C        -0.36193778374124   -0.12601535821025    2.70199668143342
C         0.68259556932775    0.47924701401386    3.62095919353792
N         0.82130696976101    0.18664671654544    4.87364328290502
O         1.58414329183034    1.38693196517336    3.23741374873915
C         1.64883988964703    1.91817559756489    1.90021785657355
C         2.89082583564757    1.37591722227331    1.17167559587742
C         2.64739389032878    0.05583233201570    0.39874799710148
C         4.17811119180273    1.05420171171628    1.97798082765849
N         3.89525869182327    0.23665620155682    3.04767369984622
N         5.29348285728630    1.44622517545955    1.46181834177468
C         6.59449755027472    1.04749734030452    2.01935892996742
C         7.65676767003245    2.15682891040487    2.08908816058306
N         7.50837085505837    3.29873370054679    2.99414261436913
H         2.43820754500339   -3.29300998143323    1.21853719801533
H         3.96660845354490   -2.36724850856994    1.14600650673931
H         2.91810168045821   -2.61565033131295   -0.28456169433193
H         2.26768709089645   -0.97405060640727    2.28614291277826
H         0.28053297196107   -2.26084413153989    1.36095476246955
H         0.50860967008155   -1.38354427698465   -0.16374005652338
H        -0.59043167864032   -1.12755588193957    3.08589887220798
H        -1.25385975556346    0.50038633903683    2.73405240581067
H         0.20928504239083   -0.51655777345635    5.31479207811013
H         1.77377758311241    3.00824265576558    1.97288598366604
H         0.69727489911418    1.83916498551064    1.37189959672576
H         3.12410683188413    2.13230419965954    0.40094574506721
H         3.57708911459020   -0.19725325173111   -0.12911155505791
H         1.95769583330677    0.14956516569415   -0.45291191473778
H         3.15233689337066    0.68008169106244    3.58676337737028
H         4.65432531692018   -0.18874338531468    3.56566263886205
H         6.75658833746284    0.17222146701475    1.37884759921959
H         6.46312621550230    0.71369754648751    3.05587066627658
H         7.86582439004204    2.59267532562093    1.10575723143789
H         8.54453158577801    1.56903655500290    2.34379952018930
H         7.56961962533901    3.06651088456453    3.98847456072769
H         6.58955914874920    3.72463294483176    2.90026974962629
