39
 energy: -54.526583306272 gnorm: 0.108567398705 xtb: 6.4.1 (79825abcba525fcdf90b791dcacef51065a7a4e7)
C         3.53140169903615   -1.49345047779968    0.05405493158783
C         2.65120697389047   -0.64048378457783    0.97342713586846
C         1.20423801889461   -1.10048288493117    0.73893487255754
O         0.11217027153558   -0.23652918251167    1.03825168181757
C        -0.49845914787595   -0.45431292964843    2.29409308637529
C         0.41501901605741   -0.38235475467313    3.50333428926462
N         0.35654736743450   -1.15028275017795    4.54301736818984
O         1.37538969182951    0.54266552210862    3.57957777850448
C         1.42268141186862    1.70460794799929    2.72978272809438
C         2.72010889329603    1.76629364153694    1.90502584097951
C         2.78578201387837    0.86484697699873    0.64709846647413
C         3.95500032519702    1.56022436086833    2.82334562967903
N         3.77064076979826    1.35713799073297    4.17145413589026
N         5.10643172516013    1.57572482033320    2.24185997572147
C         6.41745898343607    1.53048032595805    2.90641630156489
C         7.49439678773438    1.27271563781389    1.83980538041455
N         7.49167654125508    1.96036365456677    0.54666016646558
H         3.27534410897224   -2.55659436960966    0.00574833758613
H         4.56782493227620   -1.44757755535062    0.40577272358289
H         3.66735312253760   -1.06760882235778   -0.93796973190712
H         2.95627441861105   -0.74769954974861    2.02734181548267
H         1.07268230511151   -2.01000169537597    1.32074823632445
H         0.98278923688522   -1.18637875141567   -0.33241608427299
H        -1.10772082135638   -1.36035945153555    2.39682430185074
H        -1.27149547397203    0.30642711697583    2.40643584427513
H        -0.33068426426029   -1.91905682627254    4.52355543509486
H         1.45062125455432    2.59561723890473    3.37356693461831
H         0.52431975074116    1.74737897639185    2.11175701319959
H         2.99783978178453    2.73671975654028    1.45591057387943
H         3.79617978723745    0.93377166018321    0.22122646037960
H         2.01708632465165    1.23754795317064   -0.04571809660346
H         2.88102084235443    0.99113820796548    4.50879250891075
H         4.57095191600252    1.10895722255685    4.74010857815664
H         6.41473736823688    0.82733494772058    3.74797153605567
H         6.63223010321829    2.52463302177839    3.31699041170310
H         7.39996268683439    0.21764050349724    1.55961759512356
H         8.45173275862596    1.50510534588984    2.31730445499362
H         7.41221188402406    2.97260542588010    0.67086497623048
H         6.73729931047278    1.63504469082254   -0.05292285532603
