39
 energy: -54.521803841274 gnorm: 0.120374380643 xtb: 6.4.1 (79825abcba525fcdf90b791dcacef51065a7a4e7)
C         2.56075338073617   -2.67534072960616    0.70651282199726
C         2.03473002256579   -1.33303292809987    1.22521250729940
C         0.57545473448814   -1.15839812032441    0.77763763787151
O         0.03805670370434    0.14658691839940    0.96956451593458
C        -0.61971974252911    0.36278398387852    2.20164595355690
C         0.29944244082025    0.49259399919496    3.40171881787677
N        -0.11982486759763   -0.06722016021756    4.49024823320935
O         1.56061327926179    0.93205627630390    3.39130507762133
C         2.08943208107716    1.74523013489971    2.32659982222648
C         3.23184937927072    1.08627130336939    1.53413337074239
C         2.83877408099767   -0.13591487164119    0.66750018941987
C         4.45341830184879    0.77800392274467    2.44158761375737
N         4.52352052425537   -0.40097264345851    3.14708671357507
N         5.33844229188112    1.70744993158633    2.31111636420882
C         6.67465791742125    1.60885372375459    2.91715368757504
C         7.47743333385410    2.87833600678982    2.58872882401666
N         7.68595038418990    3.23859915392968    1.18451272777876
H         1.95457902992420   -3.52127859366164    1.04579992179242
H         3.51328346344141   -2.93032815175305    1.18364037481078
H         2.72767282670900   -2.62433259109679   -0.36748573674571
H         2.06847513399769   -1.27389181832553    2.32551297025172
H        -0.09057267750225   -1.75246869625572    1.39934962901926
H         0.30521196152058   -1.43696179308216   -0.24880361953577
H        -1.40380942976084   -0.37596172012697    2.40690662344618
H        -1.04842974738312    1.36067089504736    2.10489406798103
H        -1.08995332483376   -0.41632389465319    4.46461573345914
H         2.40824897302279    2.67905364833744    2.81184792542933
H         1.39569225904198    1.96342991441694    1.51299504211651
H         3.61805793064241    1.84571394681008    0.83081578037962
H         3.77168132930276   -0.51110126013954    0.22484855138007
H         2.36995808676645    0.32410431926605   -0.21476268327421
H         3.63666804981381   -0.82824331213025    3.41186794000209
H         5.27717020609647   -0.76056925457354    3.71994090053428
H         7.15887804519031    0.66811969229024    2.62873317282681
H         6.55635850804120    1.62391623279935    4.00748193554653
H         8.45377008934162    2.87818562379793    3.08609493658114
H         6.96530251837680    3.75878516368887    2.99001901094972
H         6.74523042292710    3.08322842828421    0.81399853959454
H         8.34883708324370    2.56627992616566    0.80637873607596
