39
 energy: -54.522035877761 gnorm: 0.107671146814 xtb: 6.4.1 (79825abcba525fcdf90b791dcacef51065a7a4e7)
C         2.50661481851244   -2.74581418743560    1.04368535152770
C         2.04668506450638   -1.33243119536463    1.41564410745593
C         0.55149680348699   -1.38379764990985    1.06624677590141
O         0.04663735499689   -0.05269907967176    1.02251972976525
C        -0.49887073367267    0.49746841520996    2.20454018118456
C         0.56802246714637    0.47144271181738    3.28294001587486
N         0.50787448212013   -0.25897648970930    4.34921543363026
O         1.58138075780317    1.33716555778558    3.19682173883821
C         1.97466963454823    1.85789584798351    1.91281933974202
C         3.16889138039307    1.13201187543481    1.26917814828594
C         2.86213620139979   -0.25839012127378    0.65927334292777
C         4.39149217420753    0.95553873055554    2.20983597127934
N         4.16566416102124    0.79518327140202    3.55739557463353
N         5.51964632897363    0.93749225903408    1.58445399617291
C         6.81594209559519    1.07207977950925    2.26561339251933
C         7.09065716676001    2.44936541501947    2.89132293139369
N         7.42814267158069    3.43909129475393    1.86582892523913
H         1.80446005680298   -3.47184143265500    1.46562975713264
H         3.53891778851096   -2.89582059723464    1.37809752537008
H         2.52638007531686   -2.92357042346713   -0.02960346870270
H         2.14002858635143   -1.21214513364352    2.50748464572605
H         0.07691019162915   -2.02322694292945    1.80714885326302
H         0.39599945356765   -1.84181084975987    0.08123154007475
H        -1.34252926816875   -0.16043570427106    2.44553031112914
H        -0.93785135761537    1.48566247594003    2.06418353377912
H        -0.37301777401517   -0.79530047148013    4.34114775267970
H         2.30205048633705    2.86406872638841    2.21210885064243
H         1.10180319293376    1.87588466709578    1.25812903816728
H         3.36629722020146    1.70246381145827    0.34387748334365
H         3.85709051517517   -0.62966086959271    0.37776813966076
H         2.35101654701577    0.07097268580913   -0.25728037472338
H         3.24494428930296    0.78038078324521    3.99469687839802
H         5.04646265094401    0.86072088651147    4.05273217148953
H         7.62094153667963    0.92642910764417    1.53527249509276
H         7.05057278049515    0.35565937692135    3.06231130083895
H         7.91557343695478    2.30102090174748    3.59709455492400
H         6.21358186448517    2.81333004363752    3.43609000529528
H         6.94018057629341    3.10635067159748    1.03063341382784
H         8.42428658983767    3.58919171550538    1.72588467825782
