39
 energy: -54.522800926307 gnorm: 0.123497776196 xtb: 6.4.1 (79825abcba525fcdf90b791dcacef51065a7a4e7)
C         3.47945406039157   -0.95761729201499   -0.31900003046290
C         2.43785963313925   -0.24363447969952    0.54866912022426
C         1.03879260224091   -0.85986433347449    0.39642872487684
O        -0.00249687568432   -0.25291340988424    1.15533933231742
C        -0.05685719394101   -0.75975528882559    2.47351683907815
C         1.14405120685806   -0.50425507880095    3.36482108416978
N         1.54513215741489   -1.47674778530291    4.11812397638805
O         1.83255738751415    0.62211565002240    3.56739359329135
C         1.45022045335713    1.81401710988869    2.85487152013188
C         2.39980313847944    2.15281550100775    1.69260844279035
C         2.42466464996126    1.29556871823399    0.40272079066125
C         3.84221937085526    2.11586940109752    2.26602191380317
N         4.09929914725230    2.66585287413815    3.50054903871788
N         4.76600613252992    1.56699527766538    1.55221851114334
C         6.17940154358204    1.44684226516085    1.93997010439238
C         6.57270199053717    0.08742686097948    2.54097013291945
N         7.12941574004669    0.30512471742672    3.87804499404718
H         3.47899500991276   -2.01991023025691   -0.05497834158838
H         4.42989381382411   -0.49318623712527   -0.03448128467578
H         3.21289875998722   -0.82031041586791   -1.36495984243492
H         2.78972938150832   -0.36884172228510    1.58588092906195
H         0.89188220726992   -1.93277662408530    0.49799005662932
H         0.68369361415934   -0.62073392825653   -0.61398301721488
H        -0.22778328640492   -1.84252483791972    2.44083415295208
H        -0.92604601773857   -0.23463452299958    2.87061939727816
H         1.02484519504466   -2.36700846143741    4.13854614910192
H         1.36640967375791    2.56319582136798    3.65539840239434
H         0.47164343356993    1.64911197387518    2.40096389886811
H         2.26635360769969    3.21312532686744    1.41242976333631
H         3.29790276259915    1.58601339067344   -0.19737779822455
H         1.61274901426288    1.58918505166443   -0.27873082431263
H         3.36330160023740    2.55783567383554    4.19755444135992
H         5.00372172517823    2.42541436061139    3.88741933167225
H         6.44972662157568    2.23404554601708    2.65402289285692
H         6.85181783975276    1.59030626331690    1.08538733061862
H         7.24325543170513   -0.45277597620756    1.86336736829763
H         5.66754734287129   -0.52691509781674    2.58317821984448
H         7.80004071875926    1.07398405341060    3.80393473755693
H         7.68647305941710   -0.50361373243368    4.14270798293320
