39
 energy: -54.523872123791 gnorm: 0.120693380185 xtb: 6.4.1 (79825abcba525fcdf90b791dcacef51065a7a4e7)
C         3.51014482048735   -1.38953313141627    0.14127294602565
C         2.46389652833364   -0.61493469687355    0.94929644433904
C         1.06508708881860   -1.14987048360050    0.60654168850932
O         0.01277652417081   -0.38837431369501    1.19082293963851
C        -0.26916088484701   -0.47662400404994    2.57290794841676
C         0.85413545439632   -0.17808828235704    3.54808300071741
N         1.11054725221941   -1.03334190023949    4.48449503027980
O         1.58517793133484    0.93966114193599    3.54881874733790
C         1.44315494350485    1.90507100335397    2.48942665111544
C         2.63924179471895    1.80529091671920    1.52673911512751
C         2.53246180917647    0.80738862700518    0.34687074174474
C         4.00981398589515    1.76042277401430    2.25492269814178
N         4.22808906177796    2.91281884469002    2.97392780780213
N         4.70079347556149    0.67457535918307    2.34234586376445
C         5.91683846262464    0.45562721030404    3.13969831411178
C         7.01257027633435    1.46413764357744    2.75736989484449
N         7.64912620882916    1.11939322467075    1.48416937192161
H         3.34944358180640   -2.46519800214402    0.26494248164784
H         4.49046000753045   -1.11790380091980    0.54769943686992
H         3.49117933700228   -1.20947592741572   -0.93164669435731
H         2.67843034909677   -0.62501130830141    2.03057865723896
H         0.96706730569189   -2.19692607642114    0.88421933105842
H         0.94346115253519   -1.00360453536717   -0.47420987483454
H        -0.64218309056453   -1.47494538030222    2.83152476079584
H        -1.07596745146215    0.23931237142893    2.73237501593327
H         0.43126666595028   -1.80744560424884    4.42953133545901
H         1.44446569353170    2.91233216433414    2.93051567434071
H         0.52531412117931    1.69353961897185    1.93837173577890
H         2.61663010904267    2.81231611073444    1.07291669679790
H         3.43959431421329    0.86778662761522   -0.26996305867065
H         1.69919948207157    0.97729009077238   -0.35069735705361
H         3.47588522144983    3.59913451466216    2.92558711726503
H         4.77042013462415    2.88261292286210    3.82857633705432
H         6.24887236088839   -0.57651701604329    2.97517528325580
H         5.63989363575926    0.66288316346636    4.18055557976211
H         7.78013571560453    1.43991243928756    3.53894712590412
H         6.61041336602007    2.47074432210547    2.60402285007026
H         6.92606648711901    0.64076671318464    0.94151278382609
H         8.23835156621348    0.30406772105904    1.63408613816188
