39
 energy: -54.515048836400 gnorm: 0.119594071421 xtb: 6.4.1 (79825abcba525fcdf90b791dcacef51065a7a4e7)
C         2.75965388933143   -2.55490310688767    1.48228307426773
C         2.05969664935800   -1.20469313574377    1.29645235641965
C         0.62643488965642   -1.23556765626861    0.74408253267964
O        -0.03663325568906    0.01680704134851    0.88731926894502
C        -0.59951728108271    0.37883473115243    2.13212174629771
C         0.43059136883640    0.47828560992145    3.24156769362914
N         0.68248730168349   -0.22663021684555    4.29689482714973
O         1.31151730972383    1.47960373729786    3.17002119959496
C         1.97629975156393    1.93903138245197    1.97775913154253
C         3.16624830948452    1.13625863857877    1.42375064169365
C         2.94508172834595   -0.15125965535059    0.59147527810148
C         4.40540588693251    0.88776241589652    2.32567676107412
N         4.28812672367933    0.48302770704489    3.63528145537061
N         5.45092271913248    1.06371432388122    1.59076481158454
C         6.81129801074849    0.89435827327320    2.12290412303621
C         7.23542236075322    2.21026523949173    2.79551391134155
N         6.96908823982481    3.39686063637913    1.97933424653994
H         2.27475909600346   -3.24586439049016    2.17914998355380
H         3.75408355859919   -2.36169152675227    1.89913048385302
H         2.97740716135904   -3.07919646632949    0.55403913144384
H         2.08765682374058   -0.85328675915635    2.34097583843153
H         0.05761620408966   -1.98577165597863    1.28876355879123
H         0.57838372375078   -1.61835540520978   -0.28323200098305
H        -1.40245621073269   -0.28348211844615    2.47751898731540
H        -0.89301112825304    1.42525214514146    2.04378467884985
H        -0.04934122398081   -0.92977571770244    4.48045157003058
H         2.32983831479616    2.97965739169610    2.01303332065383
H         1.31971155799780    1.95588967915405    1.10629682314506
H         3.63869472235320    1.80955388953658    0.68616423632279
H         3.94243921914506   -0.58264596940344    0.42959533768394
H         2.63008450463375    0.11180232328402   -0.42899961114756
H         3.37832439809581    0.68622188782358    4.04777204775561
H         5.13981287486709    0.40228089007548    4.17710259475674
H         7.52490408417012    0.73792353831337    1.30502235110575
H         6.86281981900219    0.10106724427479    2.87859729051348
H         8.30051202555283    2.21620152159020    3.05272064065892
H         6.70608292105758    2.28786782769107    3.75064746327752
H         5.96377062362212    3.37039329865946    1.79222240219237
H         7.34479097384810    3.28304843550143    1.04108509277819
