39
 energy: -54.525402745749 gnorm: 0.113544451934 xtb: 6.4.1 (79825abcba525fcdf90b791dcacef51065a7a4e7)
C         3.07820300382388   -1.92736098321431    0.53487083950471
C         2.25069153343907   -0.84353585867404    1.23350382895706
C         0.81153765168230   -1.21908082917148    0.84865708926568
O        -0.23439796165726   -0.28600913846209    1.10166779825248
C        -0.66253465685786   -0.32428603697231    2.44802195170800
C         0.36357654380003   -0.20896898987260    3.55963445040594
N         0.28165520154236   -0.97632809649701    4.59815364015113
O         1.26690140710255    0.77272765497239    3.62337809092549
C         1.56523285600770    1.71059147648799    2.57175645212453
C         2.84604582112014    1.61268034623532    1.72483342852231
C         2.84357890569323    0.47165524689250    0.67728584844257
C         4.13322045187594    1.47899901950268    2.58276311992859
N         4.07511403548364    1.08116593489475    3.89843082866865
N         5.20335558912129    1.71432898519108    1.90188818570271
C         6.50697092904413    1.54536608760640    2.56106436407530
C         7.66232085928543    1.50635052088910    1.54738746696368
N         8.23107609277249    2.75404674455839    1.03273869458061
H         2.72136660277083   -2.95018296064858    0.69195978975173
H         4.10241969637416   -1.80923766079116    0.90501932004207
H         3.05216527622917   -1.77442654221261   -0.54210173840448
H         2.49848616942495   -0.97303887518018    2.29986413175144
H         0.52091376745613   -2.21691832614188    1.16943152694723
H         0.86850682490316   -1.18890157668245   -0.24681279144109
H        -1.21918996625455   -1.24626171332781    2.65482982188791
H        -1.24630693051966    0.59564793039505    2.49118319503009
H        -0.50950085364679   -1.61111198436664    4.41160290932573
H         1.47130037810105    2.70676711852884    3.02776856748609
H         0.70353709173789    1.71906154569962    1.90224359605537
H         2.93082185150775    2.60411517732118    1.24479614749532
H         3.86617981399946    0.28554610854802    0.32137575223198
H         2.27798967501346    0.79477675557534   -0.20899580598255
H         3.13737189180822    0.80843727108608    4.19072414453008
H         4.90428200501585    0.65948562956481    4.29858791481814
H         6.62880881929762    0.59469691151718    3.09399934157965
H         6.69904429767344    2.43736223452822    3.16974162891119
H         7.29388860760740    1.02241650473627    0.63597533316859
H         8.52070197221914    0.93324347806935    1.91239799506131
H         8.64078360784655    3.23796905713417    1.83544276110720
H         7.42454904704372    3.26479953613936    0.68193540745659
