39
 energy: -54.525138158538 gnorm: 0.107828627970 xtb: 6.4.1 (79825abcba525fcdf90b791dcacef51065a7a4e7)
C         3.16784215082463   -2.13878541159398    0.27925303830584
C         2.44660130137344   -1.01238644888946    1.02663325395524
C         0.94698808117478   -1.22423947554439    0.76859559554133
O         0.02911541623776   -0.20437573212490    1.15070320903119
C        -0.41120534053609   -0.22397004997361    2.49352462969938
C         0.50686280827582    0.12959283716008    3.64852625899981
N         0.34164559082966   -0.44615032310304    4.79538994876907
O         1.39230874619372    1.12946792354782    3.64376107870780
C         1.66484262437136    1.91532642832865    2.46789968312937
C         2.89806871604740    1.42669286293906    1.68832432423473
C         2.80200593234157    0.40681666554903    0.52646168936702
C         4.11069239359342    1.18567389929120    2.62757204655253
N         3.96854658046809    0.63023305913569    3.87813555769035
N         5.22084856488536    1.57981472114754    2.10186643559829
C         6.53401495367158    1.24345466421480    2.67189328062288
C         7.54948804527135    1.54647327485088    1.55794056201466
N         7.47626816815789    2.96006105616016    1.18177546339484
H         2.76146263892758   -3.13763282953280    0.46722504998977
H         4.24861003738430   -2.12414117762203    0.45732371693981
H         3.07942091661167   -1.83251779415169   -0.76109241932913
H         2.62322909285283   -1.08204218073023    2.11256521004404
H         0.64634065856687   -2.14385252118905    1.26554743945811
H         0.75665544144052   -1.41887691251869   -0.29446615570710
H        -0.83186100447156   -1.23321744404955    2.57803672909241
H        -1.20988203494313    0.51755767958847    2.45912062008827
H        -0.35728102961925   -1.20327367307337    4.83949747671035
H         1.94758123869270    2.86447056915833    2.94572869860806
H         0.77766756833910    1.96073462925764    1.83410371668229
H         3.13211920958681    2.35285530415151    1.13333845701709
H         3.66854482787350    0.46040687695262   -0.14678392275023
H         1.96639429694542    0.69765743520911   -0.12695908290360
H         3.00611375312338    0.37300724168228    4.09431735984961
H         4.54477991827659    0.96400418447743    4.64103232127063
H         6.47705715854049    0.19159835892099    2.97683618096888
H         6.71638506301110    1.85645227233168    3.56296701257125
H         7.21925663567204    0.98200879912525    0.67877413381770
H         8.60849526202345    1.46262376156394    1.82246934943175
H         7.74364319092519    3.61569134798978    1.92003990734695
H         6.49843042656358    3.13419471851873    0.96285069276195
