39
 energy: -54.525754110396 gnorm: 0.100836971538 xtb: 6.4.1 (79825abcba525fcdf90b791dcacef51065a7a4e7)
C         2.62069843179398   -2.63407934471417    0.70570928049929
C         2.08618846845853   -1.31938002037120    1.28312156267812
C         0.63872229410794   -1.21084896736185    0.77976521065559
O         0.06373965343105    0.08134139243972    0.94786503139751
C        -0.37655111223240    0.28850102580798    2.27476540660906
C         0.64839085123163    0.39052254992719    3.38875382471000
N         0.85090878200739   -0.47231610745879    4.33139329838523
O         1.49536667350822    1.41866306594899    3.29207679143827
C         1.79024356679346    1.97493310140143    1.99665809750281
C         3.02308671312179    1.25908176059109    1.41786477616047
C         2.87916646514355   -0.11686579678736    0.72119014065008
C         4.12219753664339    1.16714336987095    2.51067552194064
N         3.95381745811922    0.34230297129530    3.59875434471139
N         5.30321801032877    1.54007872355810    2.14974623171468
C         6.49963311564334    1.44531359429018    2.99950214515985
C         7.26094090624829    2.68382809198465    2.49911347004160
N         7.81685026813701    2.50087250480246    1.15651011049901
H         1.90382103373297   -3.44332885198581    0.87710349688115
H         3.56161483537922   -2.91718249802086    1.18997343182443
H         2.66702318647224   -2.57931875453244   -0.38001265799828
H         2.14316691159427   -1.26139739030584    2.38252547817972
H         0.03086427807077   -1.95187018994207    1.29399700373313
H         0.62144035586945   -1.41683069202339   -0.29795617856232
H        -1.10290930751109   -0.47645375637379    2.57463494707380
H        -0.99194561208694    1.18862279635262    2.27339393180964
H         0.16118504272522   -1.22345861004064    4.48548990466417
H         2.08275841195094    3.01855628678944    2.18218976313555
H         0.87123844989824    2.02351411655851    1.41022116310029
H         3.47167940443881    1.93741314571932    0.67007007226195
H         3.93037475922479   -0.35445046865584    0.50779878656874
H         2.42788906669171    0.04676950064992   -0.26843911112142
H         3.05955766838150    0.50776384829673    4.05929616298874
H         4.77788738317226    0.25744478991560    4.18113510599514
H         6.97435745214331    0.47087706543110    2.83292993765588
H         6.39352077313712    1.57251506642425    4.08375177937878
H         7.99875979188811    2.97103242226895    3.25657205035283
H         6.49327157355676    3.46293808216112    2.54573885153872
H         7.16412941258363    1.95587615983268    0.58790713805087
H         8.69323334037695    1.99373896263181    1.25235121457166
