39
 energy: -54.524735440432 gnorm: 0.097755637415 xtb: 6.4.1 (79825abcba525fcdf90b791dcacef51065a7a4e7)
C         2.97083609431789   -2.38235364585622    1.38614026275879
C         2.05027488732344   -1.15833630546422    1.34268001787491
C         0.57203748470663   -1.51347598772537    1.12133203374489
O        -0.27882561138300   -0.37556425329958    1.02229976123321
C        -0.55878199536048    0.28157572995160    2.24181898778176
C         0.48520606797594    0.59907612505859    3.29593807116776
N         0.32395492818593    0.25532511465177    4.53283198798181
O         1.63589831559303    1.23896755745781    3.07180926431237
C         1.96111411767420    1.86902210489973    1.81810902659876
C         3.11673117089370    1.16434768192567    1.08644633187147
C         2.61261008575689   -0.10665218501674    0.35862657841393
C         4.39173789140160    0.92004158662043    1.93815344616172
N         4.24475487652382    0.30661009800116    3.16074367126586
N         5.49760583305737    1.28111975041639    1.38062430208810
C         6.77558659204309    1.06947134646406    2.07664497715571
C         7.20792360945061    2.15834787005950    3.07230010972480
N         7.48203083521002    3.46885648499007    2.47856267764797
H         2.74916861269147   -3.19561296178148    2.08445735553781
H         3.95613740919136   -1.99889810184554    1.67271662803570
H         3.06778342601719   -2.83253225763117    0.40030190411135
H         2.13955779545178   -0.79370979142598    2.37919995662492
H         0.27674982002904   -2.10199599058064    1.98706153191222
H         0.41663164283530   -2.13742738331095    0.23209403982998
H        -1.26720681688617   -0.35103900165221    2.79009507436662
H        -0.88218148523388    1.24763033379805    1.85312534080629
H        -0.58733319894786   -0.11134765864789    4.84713230500057
H         2.15861202955957    2.93341499263557    2.01097852143340
H         1.13828193510217    1.69387253064733    1.12304884597671
H         3.45598571870350    1.79714626333739    0.24678085145326
H         3.38812866412909   -0.59301860540515   -0.24885993908816
H         1.88930753988154    0.10206782753994   -0.44328566540294
H         3.34362221957795    0.31800614841669    3.63719586945514
H         4.99851884602801    0.24878512594484    3.83450597758286
H         7.53131292951410    0.85334893914755    1.31191963336845
H         6.71273105761073    0.17270364116466    2.70505104135638
H         8.10575418510632    1.85290610679000    3.62112806012557
H         6.37339789214190    2.17811469125721    3.78059284803064
H         6.87246293055033    3.79024057332881    1.72257715727404
H         8.44306857962754    3.43468282076789    2.14741943154287
