39
 energy: -54.519993783295 gnorm: 0.116820926724 xtb: 6.4.1 (79825abcba525fcdf90b791dcacef51065a7a4e7)
C         3.69936341913935   -1.44055659190531    0.50619925380457
C         2.57287869713329   -0.56606090204577    1.06640425941808
C         1.20711626137532   -1.09646535821238    0.60416077080448
O         0.07925783298953   -0.30682527677336    0.96888317286952
C        -0.25148289851798   -0.35359295453746    2.34214900521001
C         0.88975726902136   -0.15253431932758    3.32145026087022
N         1.44181313657638   -1.08361602985648    4.03024813535055
O         1.31605161144127    1.08629568137707    3.58098985339499
C         1.26722880434871    1.97735789400340    2.45044891140525
C         2.59235236646668    1.89539386755240    1.67283938525665
C         2.75119206214521    0.87026735634510    0.52254119356792
C         3.77155810771889    1.77224304078536    2.67535638881685
N         3.67195293858383    2.66066297882374    3.72102263460993
N         4.83548689362538    1.14048411281997    2.31053274356809
C         6.07492638291424    1.08686372250758    3.10008277686424
C         7.21041234883343    1.28600762187476    2.08277758040366
N         7.24917129810068    0.12211197234498    1.19455665801261
H         3.59475830725297   -2.45881567629153    0.89398806479715
H         4.68699999668075   -1.17215361441893    0.89673309467323
H         3.75798882783853   -1.41470008287175   -0.58000116092457
H         2.60531660909707   -0.49327302455645    2.16592562267264
H         1.16192311099346   -2.11245121830034    0.98986593818685
H         1.29712474774854   -1.29538320900241   -0.47126505033234
H        -0.75170923452560   -1.29361038430216    2.60447445207305
H        -0.98125035250043    0.45038781521817    2.44207831056348
H         1.04996532734588   -2.01489767953463    3.82324704715265
H         1.19026176863128    2.94639292633256    2.96443673255414
H         0.40275805098192    1.84070688798502    1.79863939791714
H         2.73504311522398    2.87412605326128    1.18061131387114
H         3.80446517526023    0.99441729092465    0.23579428807505
H         2.02620925544803    1.02862045996298   -0.28931969156409
H         2.71743313610061    2.88719529751712    3.99806359744600
H         4.39954039356730    2.85754345814443    4.39727263938072
H         6.27556285108699    0.12438171769806    3.58589080568165
H         6.03841837921325    1.74580075899651    3.97615723857221
H         8.15997791131931    1.32272734965006    2.62828966934471
H         6.86417173296543    2.12912534345940    1.47633512659296
H         6.37430549857893    0.16580738826401    0.66628076870380
H         7.34298266364167   -0.75176730441611    1.70636880440085
