39
 energy: -54.529249962521 gnorm: 0.105045806944 xtb: 6.4.1 (79825abcba525fcdf90b791dcacef51065a7a4e7)
C         2.77378859690280   -2.41901539095679    0.95844512460901
C         2.12339709326226   -1.07690881849523    1.30955909503901
C         0.67732526872180   -1.13345657348313    0.79382314727103
O        -0.12259890951075    0.04489803654243    0.80866347305643
C        -0.71803684277550    0.27102814093687    2.07031101971313
C         0.23957447465820    0.16582322916180    3.24240193762322
N         0.20636134155003   -0.69558152793456    4.20726046862278
O         1.31908621204989    0.94105704578454    3.37451688480091
C         1.77447371431824    1.78275521780355    2.29810398051838
C         3.09055142358464    1.35573263052239    1.62509708916067
C         3.03568739284630    0.05572745096078    0.78469433120592
C         4.28071557871383    1.27237866003853    2.61872379402323
N         4.17728891259517    0.54533010209598    3.78205194574776
N         5.39680621340269    1.74958669784320    2.18194662818914
C         6.66176404067471    1.45874347820603    2.87315323783320
C         7.64519599051727    2.50460318242575    2.32275736178536
N         7.81766273941683    2.46272689281521    0.86893710333795
H         2.47170426927655   -3.23110915705601    1.62734177244434
H         3.85723424534784   -2.30942946535919    1.07726978347702
H         2.43763747873537   -2.65326209808658   -0.04955673319103
H         2.11531250089241   -0.97954877858058    2.40762702420315
H         0.22161470783391   -1.96617788702084    1.32480455867710
H         0.73142008023061   -1.49232721621148   -0.24179075002777
H        -1.51306052080105   -0.48130141234602    2.13821820597358
H        -1.15498325245920    1.26987270693654    2.05245478478974
H        -0.55568585708696   -1.38864636580330    4.15602705790034
H         1.98323477812647    2.79474500186295    2.67417815819389
H         0.94470584048012    1.82999553113719    1.59093183367258
H         3.46354275008659    2.11272528852667    0.91207156890708
H         4.03285682001065   -0.39920455724925    0.70912161463628
H         2.66101997956911    0.30612705189163   -0.21865916612658
H         3.28633778991196    0.20987547568080    4.14654189611021
H         4.99176550688657    0.60167546437962    4.38114507775073
H         6.99189068958315    0.43109946854034    2.67924544227788
H         6.64697046997293    1.64713925019362    3.95358162670555
H         8.63841712394266    2.30180188296715    2.73867796729690
H         7.23184627087035    3.44750358979630    2.69502519397278
H         6.98987353342182    2.72407339703132    0.32779210755789
H         8.27738634288404    1.60546180226466    0.57200611976810
