39
 energy: -54.527276615025 gnorm: 0.116069435335 xtb: 6.4.1 (79825abcba525fcdf90b791dcacef51065a7a4e7)
C         3.63556906906671   -1.47203943896107    0.49798121486766
C         2.47624390358995   -0.61725948686841    1.02033795436908
C         1.15747739527996   -1.32462693825516    0.67278780823492
O        -0.00187394950009   -0.57960748267247    1.03260576649387
C        -0.37265105042237   -0.51309708982380    2.39478649832955
C         0.63801956716618   -0.30361856548655    3.50678838419265
N         0.77769742817277   -1.02640319155060    4.57081172818579
O         1.30516814561451    0.85175905957442    3.56845430756168
C         1.40050963508527    1.74929838871061    2.44603217323555
C         2.72959577793841    1.88039980098569    1.68203641451534
C         2.66862142438338    0.83882112647913    0.53717995736515
C         3.96019108868604    1.56424749656849    2.57445755328054
N         3.88181021922301    1.69929891907202    3.94129572831353
N         5.05625495843531    1.37588751539292    1.92075686059435
C         6.22478544576788    0.92603633281535    2.69188918725357
C         7.38187805572987    1.11991626089165    1.69818711865358
N         7.46423957445013    2.52725841010791    1.30107705714184
H         3.49514937038716   -2.46465421180269    0.93749477805665
H         4.50712710846651   -0.95794400625893    0.91759451047897
H         3.65939280841105   -1.48914915896516   -0.58971199648205
H         2.64610848298881   -0.64622014938556    2.10919277130359
H         1.18670900741960   -2.35361999006500    1.02400990058771
H         1.08102087837242   -1.25655740158259   -0.41979238035101
H        -0.89055450197125   -1.44351502275006    2.65703115148904
H        -1.08399968818524    0.31233035921647    2.43458723443295
H         0.30924223152736   -1.94177379241540    4.65034813441449
H         1.18795243804074    2.70430853535487    2.94793987255618
H         0.56941778006582    1.54121373323316    1.77014319890007
H         2.83190550100599    2.87515309105546    1.21239357776980
H         3.62421932450775    1.04645016225738    0.03643644284630
H         1.85913998629054    1.05852174229542   -0.17434326748998
H         2.96513206106012    1.72637378133818    4.38643024506165
H         4.50371191237424    1.09364271858552    4.46271527984757
H         6.19857158531727   -0.07952656361258    3.12868678099186
H         6.40963720829897    1.53804058421880    3.58313434910053
H         7.24285996943369    0.48445205437405    0.81644693651836
H         8.31691685552423    0.92839353098822    2.23439975673020
H         7.66686042328992    3.19019118480062    2.05330029462044
H         6.55316104394624    2.73934100603940    0.90186017379072
