39
 energy: -54.522529379246 gnorm: 0.110748585579 xtb: 6.4.1 (79825abcba525fcdf90b791dcacef51065a7a4e7)
C         3.03751823064907   -1.15187418091637   -0.53689383708230
C         2.24563688187939   -0.39677692439081    0.53562294039979
C         0.76838378705806   -0.81002093888148    0.45043125668786
O        -0.05350036923464    0.01259629340434    1.27288237621561
C        -0.22527011008231   -0.57846140228186    2.54511727926291
C         1.03682325471661   -0.50037490864699    3.38351304686716
N         1.45882604257409   -1.51273349104599    4.06989267400645
O         1.71692238183090    0.64528228996091    3.47690563255147
C         1.49023747299027    1.76713285773408    2.60251236254668
C         2.69659128528897    1.91969239533554    1.65975939025976
C         2.45676312411078    1.12393526538088    0.35264296624056
C         4.08899082498711    1.74738300583612    2.32478991296650
N         4.25235537312164    1.76851378671392    3.69062100357249
N         5.04689940017608    1.71639681742785    1.46130215009566
C         6.40506770538164    1.83988374781683    2.01139713571363
C         6.94950870666189    0.55646240538975    2.65971047513228
N         7.14984398014065    0.86976706440760    4.07632535357603
H         2.92814552522179   -2.23967368287361   -0.59078078410833
H         4.09895059314543   -0.95461276435987   -0.35133489694257
H         2.70001521912244   -0.83922061263410   -1.52293455642379
H         2.64072616667270   -0.66868895809074    1.52822850934434
H         0.64447265059701   -1.87358402421257    0.64152744592847
H         0.38096515532390   -0.51755666733623   -0.53373437325720
H        -0.50789568619421   -1.61180360876175    2.31059551336834
H        -1.04143236980795    0.03269855245981    2.93150328988441
H         0.79217664852604   -2.29964476798877    4.07526777511102
H         1.55065857562750    2.67849947923747    3.21480025681548
H         0.57143038234974    1.73809774966338    2.01447383993465
H         2.89287501706338    2.92583840139962    1.24780220473427
H         3.17471201839694    1.24110591186446   -0.47066842336451
H         1.54060628706842    1.56150053589690   -0.07042576524424
H         3.50178848749015    1.27092086835605    4.16835239320887
H         5.08027604053588    1.31463207805435    4.05667873818576
H         6.40355905919908    2.61648213014873    2.78568953958253
H         7.06245834311904    2.21452927589015    1.21734701294081
H         7.81323586225995    0.14544148840278    2.12525398473973
H         6.16434769215493   -0.20382556216237    2.59656862479081
H         7.95192994790207    1.50107119111114    4.14331842334119
H         7.35879066450108    0.09145209975227    4.69679641189880
