39
 energy: -54.524825198097 gnorm: 0.105276619827 xtb: 6.4.1 (79825abcba525fcdf90b791dcacef51065a7a4e7)
C         3.42783498817965   -1.92785692387092    0.78335892470679
C         2.36190197706269   -0.92298960621819    1.23232293090884
C         1.00167212536162   -1.20336444776136    0.57545942481221
O        -0.02608649979883   -0.25839913249394    0.85718852892755
C        -0.51540796501116   -0.35640074138526    2.17945774314717
C         0.41825927792606   -0.24868847202702    3.37048594411401
N         0.37574122704322   -1.09975336717777    4.34411524184720
O         1.07288858860300    0.89633408768412    3.58065544644745
C         1.47727354728941    1.80668780434138    2.54035393067049
C         2.84893138362596    1.60214524696016    1.87397248721010
C         2.70170765375851    0.51584000288819    0.77963870307243
C         4.12373504631846    1.34100249718034    2.72097467448086
N         4.13656291521557    1.58275014138354    4.07523557543997
N         5.17899709044075    1.18530285014284    1.99548191849291
C         6.56920876227076    0.97406106454302    2.42578769374847
C         7.46429028529382    1.66336699613591    1.38291525187758
N         7.66959904364917    3.10766089694159    1.51312732790837
H         3.25752547510382   -2.90745302219515    1.24113628119690
H         4.44523097921662   -1.60303417902500    1.02703582294759
H         3.33365733359775   -2.01912880512577   -0.29679701492837
H         2.21077908248120   -1.01239747871624    2.32065450874681
H         0.62097856407357   -2.18135591608696    0.86119228491517
H         1.19093008800188   -1.20192459395056   -0.50546142754849
H        -0.96691060392009   -1.34721368645277    2.31025862433590
H        -1.35207866341853    0.34116244822931    2.22761598634996
H        -0.26708728761426   -1.90474822245183    4.29477513321923
H         1.69733286882861    2.71462349565974    3.12032201433223
H         0.64189579180366    1.86712278344843    1.84083235550151
H         2.97402717299517    2.52896694777824    1.28582421406200
H         3.67635830705840    0.44903834084028    0.27703061927768
H         1.98175653072675    0.99404218424043    0.09935425282288
H         3.26889636545287    1.38883270719667    4.57396137881699
H         5.01052560025059    1.30629984325544    4.50561211269021
H         6.76505013822290   -0.10236136070967    2.50060055345307
H         6.80077912110514    1.29193067715699    3.44968778178871
H         6.94782062094953    1.55678948578148    0.42244304779542
H         8.45037336150376    1.19647717666483    1.47322897320871
H         7.75703682945304    3.35895270375117    2.50084283982575
H         6.84984350234703    3.54214575496349    1.09642480045473
