39
 energy: -54.527164421377 gnorm: 0.084462170290 xtb: 6.4.1 (79825abcba525fcdf90b791dcacef51065a7a4e7)
C         1.05791000000000   -0.02836000000000   -0.71959000000000
C         2.42051000000000   -0.07972000000000   -0.02086000000000
C         2.56470000000000   -1.10907000000000    1.11049000000000
O         1.35554000000000   -1.72389000000000    1.54471000000000
C         0.48592000000000   -0.91006000000000    2.30555000000000
C         1.07063000000000    0.01182000000000    3.35918000000000
N         1.68149000000000   -0.42058000000000    4.41462000000000
O         0.90520000000000    1.33381000000000    3.26557000000000
C         1.26183000000000    2.08038000000000    2.08661000000000
C         2.73692000000000    2.01864000000000    1.65343000000000
C         2.98758000000000    1.32434000000000    0.29166000000000
C         3.76855000000000    1.70763000000000    2.77135000000000
N         3.53431000000000    2.27413000000000    4.00295000000000
N         4.79799000000000    0.99670000000000    2.45672000000000
C         5.82006000000000    0.74041000000000    3.48247000000000
C         6.96671000000000   -0.09147000000000    2.88492000000000
N         7.60688000000000    0.58698000000000    1.75577000000000
H         0.69876000000000   -1.03463000000000   -0.95751000000000
H         1.13340000000000    0.52423000000000   -1.66242000000000
H         0.28896000000000    0.47399000000000   -0.13624000000000
H         3.09206000000000   -0.44965000000000   -0.81299000000000
H         3.12074000000000   -0.74715000000000    1.97239000000000
H         3.18316000000000   -1.93034000000000    0.72678000000000
H        -0.15574000000000   -1.61277000000000    2.85066000000000
H        -0.20100000000000   -0.36544000000000    1.65712000000000
H         1.72629000000000   -1.45028000000000    4.37733000000000
H         1.07358000000000    3.12163000000000    2.38577000000000
H         0.54630000000000    1.90982000000000    1.28053000000000
H         2.99158000000000    3.06825000000000    1.42098000000000
H         4.07223000000000    1.27878000000000    0.12290000000000
H         2.62733000000000    2.00751000000000   -0.49147000000000
H         2.55100000000000    2.29569000000000    4.27093000000000
H         4.06499000000000    1.86609000000000    4.76278000000000
H         5.38807000000000    0.17399000000000    4.31625000000000
H         6.22227000000000    1.68567000000000    3.86685000000000
H         6.57939000000000   -1.05795000000000    2.54359000000000
H         7.71913000000000   -0.28566000000000    3.65606000000000
H         6.86205000000000    0.82706000000000    1.09701000000000
H         8.22646000000000   -0.06289000000000    1.27806000000000
