39
 energy: -54.521433431773 gnorm: 0.117018234941 xtb: 6.4.1 (79825abcba525fcdf90b791dcacef51065a7a4e7)
C         3.25113950787692   -1.93713451605139    0.30223361323439
C         2.41160837545557   -0.93365293071618    1.09957441518936
C         0.94414355515048   -1.37049037854652    0.97298459109429
O        -0.03012291238550   -0.36020230419822    1.21535077126062
C        -0.45457352246522   -0.40165885715135    2.56277746613209
C         0.70965345222382   -0.09305237657593    3.48539447631370
N         0.96624086623813   -0.75342033388099    4.56805336222221
O         1.44907699750930    1.01417528025716    3.38009919906235
C         1.53024614298598    1.87041514539842    2.22477969806621
C         2.78594458401261    1.68646827884857    1.35487623348115
C         2.51941393503676    0.46242137512261    0.44384885866669
C         4.04110809408014    1.40721798429710    2.22511551204424
N         4.13441416451781    1.72217831806623    3.56105076298043
N         5.07513032585646    0.98902118957917    1.57698779331094
C         6.33766635518076    0.75757602638175    2.29456047324726
C         7.45623059652599    1.74376911663147    1.92021604646088
N         7.33881539439225    3.07616755019165    2.51689001504993
H         3.02045806886286   -2.99256070182255    0.47840281418248
H         4.28572043791885   -1.83662042181955    0.64795324223529
H         3.19855037959454   -1.77224123158600   -0.77200166021840
H         2.72471612797512   -0.90317257509952    2.15614054512299
H         0.88789427368124   -2.30159430508445    1.53237680831318
H         0.82910717756074   -1.63021687807926   -0.08697734649025
H        -0.88609595330385   -1.36337777324428    2.86536445865308
H        -1.18293113133330    0.39716933097043    2.70525615538857
H         0.21690155186543   -1.42976716653728    4.77953671985234
H         1.48669148582305    2.84612031132600    2.72999122719646
H         0.64666805432757    1.76583267372401    1.59296400738919
H         2.95425554047621    2.59626735811878    0.75113553929485
H         3.35003207786757    0.47604924862233   -0.27511498477423
H         1.63249931570277    0.58905641472911   -0.19422627885812
H         3.25864156255399    1.69125386336179    4.08186038360301
H         4.70555072227670    1.09085526726940    4.10940624408773
H         6.73648697533001   -0.23843984597911    2.06755708814731
H         6.30313602142059    0.82853990011530    3.38854817661214
H         7.52493095824384    1.91178468967444    0.83963400004026
H         8.41595753129359    1.37332669082756    2.29464777908721
H         7.83448246410217    3.22065024658667    3.39996066706025
H         6.36571457318353    3.12623147107185    2.80841296685412
