39
 energy: -54.516436305447 gnorm: 0.109558790168 xtb: 6.4.1 (79825abcba525fcdf90b791dcacef51065a7a4e7)
C         3.62847139813971   -1.07470073439324    0.26043832375637
C         2.49079788295547   -0.39744412061863    1.03151719969622
C         1.20692955969175   -1.17647244740415    0.70732291592059
O        -0.04611074560469   -0.67329544934950    1.16044697354400
C        -0.21503085105958   -0.82541865962393    2.55535205884106
C         0.88472792080372   -0.43779892261314    3.52600450809527
N         1.42788200056041   -1.27166087132000    4.35288486343268
O         1.34573657147320    0.81564680849615    3.51450618681533
C         1.17321700724255    1.85484800862494    2.53226579806441
C         2.48607970647060    2.13323986000866    1.77977884419736
C         2.50420146642798    1.09558541008413    0.62988963534446
C         3.79646002100410    1.85949748839664    2.56635443219562
N         3.91198205864822    2.28429744862579    3.86974566404112
N         4.78646363054379    1.42960413724385    1.85978196269418
C         5.95562763413996    1.11084354057036    2.69280169913079
C         7.04418906819515    0.51130034178800    1.78755118410357
N         7.99384380860883    1.51283341760014    1.29747045873437
H         3.90361547208217   -2.09514670328856    0.54532376161972
H         4.53834495239086   -0.51792362821327    0.50966155324514
H         3.43669560019598   -1.05197010253265   -0.81037547891700
H         2.57999670849400   -0.48756546960870    2.12660588396719
H         1.36348349366572   -2.17575184797674    1.10728504492450
H         1.02960117492140   -1.25893655071788   -0.37247560482503
H        -0.38144900796911   -1.89356099124116    2.73988049268266
H        -1.09707290137450   -0.26765688582565    2.87131897791552
H         0.85273647432410   -2.11149592570725    4.51891005610509
H         0.71635855972098    2.74886931433033    2.98075497175300
H         0.49000334905933    1.49710618701991    1.76020446409776
H         2.57055330599348    3.13648632643258    1.32488706839521
H         3.37432167810087    1.21316288175132   -0.03047964975460
H         1.62962327445748    1.31905561397387    0.00142489585231
H         3.01668922540545    2.44795318504705    4.32892338388579
H         4.63489078826231    2.07375579354324    4.54689754244802
H         5.66816015005228    0.33476960892921    3.41232080891807
H         6.32451476126212    2.02693218619773    3.17002408142288
H         6.46323788102296    0.03462812578637    0.99012667150175
H         7.50005532555122   -0.35496510327105    2.27772731545548
H         8.32345885819833    2.00642081275297    2.13059726434404
H         7.46061114231923    2.25652655036257    0.85362286787479
