39
 energy: -54.524184478525 gnorm: 0.111798789767 xtb: 6.4.1 (79825abcba525fcdf90b791dcacef51065a7a4e7)
C         3.40273117546195   -0.82135778142820   -0.24649590238572
C         2.33103501401293   -0.09326320078463    0.57135848132105
C         0.96616700541438   -0.72497750727823    0.25770691922883
O         0.05856801755803   -0.30999896962415    1.27391329949814
C         0.27430627104736   -0.90460067055241    2.53777305856882
C         1.40221170685166   -0.40306467474950    3.41991565769580
N         2.07299167078993   -1.09859390391706    4.28036121660999
O         1.52637354504318    0.91003966267276    3.62998286762734
C         1.38102975264663    1.89536332239442    2.58954508933651
C         2.52353375096380    2.19903973632695    1.60475458620742
C         2.26899808901475    1.42530496378735    0.28723934966098
C         3.88172046225647    1.82572758203351    2.25797695846830
N         4.06633959871712    1.77351112847765    3.62026115971560
N         4.83803150359718    1.66602579681217    1.40702184676827
C         6.22137958078809    1.33433918444387    1.77958958304192
C         6.39098259904122    0.11295248311862    2.69792822146523
N         6.84613335956733    0.55702642280915    4.01729468243968
H         3.52936293875232   -1.87808890899181    0.00935106122977
H         4.36648870588331   -0.30420301769455   -0.18562539485946
H         3.13598923527941   -0.75537311858169   -1.29931668396406
H         2.64563594772705   -0.13711303639108    1.62701039300451
H         0.95325583530031   -1.80353590682429    0.11776679725852
H         0.53091963995909   -0.28640052519691   -0.64916710407863
H         0.16406481690181   -1.99360002911303    2.60560367982980
H        -0.54093442276571   -0.49751742647477    3.13660301877845
H         1.88722399225417   -2.11199878972263    4.32705774315550
H         1.05276368288945    2.82378395950005    3.07884335248011
H         0.58886844323666    1.55553149834198    1.92034137695156
H         2.50701611381521    3.29811630528009    1.49374268421584
H         3.00942571089100    1.65273772812176   -0.49190280566626
H         1.30260859537354    1.76080666299140   -0.11689406315757
H         3.21985243723655    1.43862288612998    4.07904867921718
H         4.93164362253367    1.30054364424492    3.85050061369566
H         6.71145990987525    2.23752553993578    2.16261923598008
H         6.67335455557543    1.00303590670460    0.83672475875540
H         7.13423902069278   -0.55276151823392    2.24515754124924
H         5.47883515361307   -0.47698608696866    2.83380323517625
H         7.68357031885735    1.14444875742322    4.01426002348832
H         7.06491535111800   -0.24508275718912    4.60310398418297
