39
 energy: -54.520335023911 gnorm: 0.112832804330 xtb: 6.4.1 (79825abcba525fcdf90b791dcacef51065a7a4e7)
C         3.24466054324606   -1.81795900733857    0.38843677282654
C         2.37751861753700   -0.65889739468713    0.89061324711727
C         0.90565939218610   -0.85988955168394    0.49877462458917
O         0.13370652005114    0.18554718925238    1.08167195196336
C        -0.43601448579492   -0.07818648587104    2.34788607133378
C         0.59140532926172   -0.27184716043760    3.44733532128277
N         0.46566353222753   -1.20636171996351    4.33330640288906
O         1.62127862494205    0.56798423788539    3.58087032279943
C         1.70258694813864    1.74464664340641    2.75421874686013
C         2.77897360150214    1.75469519683786    1.65483808646538
C         2.72707225674656    0.78159191738201    0.45081296011301
C         4.17525790370434    1.65958761330706    2.32720499505069
N         4.39284774037690    0.82868169870898    3.40185798003854
N         5.01989041238944    2.52473526882393    1.87745448979914
C         6.43839345388157    2.55101409620538    2.26427896652383
C         7.19523500151677    1.26956569567045    1.87830307781236
N         7.01308592872364    0.31557393698919    2.97457548047079
H         2.69416771337751   -2.73378423017580    0.62591467181017
H         4.24493846922117   -1.66498741830715    0.80799202181031
H         3.46284922770489   -1.68863037358492   -0.66967694252814
H         2.51968175435782   -0.60231971735081    1.98234861686453
H         0.54139146387325   -1.86074455838629    0.71931097951916
H         0.79123973006125   -0.73967301135240   -0.58596804236903
H        -1.04880517346199   -0.98328745607604    2.25870319177408
H        -1.09876736889854    0.75122196043492    2.59642521966470
H        -0.26653206822257   -1.90836685532949    4.14687129522609
H         1.99618463100520    2.54692539271181    3.44652321996008
H         0.75945237091723    2.06070357424571    2.30539364099297
H         2.86319935092691    2.82688600394908    1.40209574789962
H         3.66897383562495    0.92002763217154   -0.09752833401800
H         1.89677500111570    1.04660238720652   -0.22013395964994
H         3.58634966089949    0.40918630349629    3.86311829927337
H         5.35555498328607    0.82278179917055    3.71589531025992
H         6.42117767869656    2.61249149878847    3.35906670383438
H         6.74755678212138    3.46423982346448    1.74133143089558
H         8.24318715810569    1.54915133694077    1.72262816766076
H         6.72603965860594    0.87561942159290    0.97101890776036
H         7.83259088101476    0.28247255687009    3.58587802599504
H         6.70507460709788   -0.59073257767678    2.63083900863034
