39
 energy: -54.526338026391 gnorm: 0.112180460955 xtb: 6.4.1 (79825abcba525fcdf90b791dcacef51065a7a4e7)
C         3.71496997413839   -1.63209545109244    0.58852576767697
C         2.57676122410316   -0.78545431924438    1.16750747817584
C         1.18718245608792   -1.23784472471226    0.69346240745767
O         0.21538312479601   -0.23193743044120    0.96248861036993
C        -0.54736689075162   -0.36751320851692    2.14454922809437
C         0.20610464805146   -0.20684262885042    3.45158794996624
N         0.06294043851811   -0.92469639865553    4.51848214144931
O         1.16241362850485    0.71746433072075    3.57372389101053
C         1.43979929018171    1.76011119111586    2.61955250063116
C         2.83161118275020    1.65368065964088    1.97234365562948
C         2.80896312534160    0.68821103076925    0.76128800237771
C         4.12650888920737    1.36453500052412    2.77879720422239
N         3.91749382543936    0.56635735845335    3.87963970655874
N         5.22620433481209    1.74811358852034    2.22409234484569
C         6.54344239559623    1.61694564976746    2.86452463055719
C         7.38576507545481    1.43470378179316    1.59127016064860
N         7.39646904037372    2.61287097057026    0.72127059337258
H         3.66847434373614   -2.72571847667727    0.58941185373143
H         4.66584926804332   -1.52079043095210    1.12090026911078
H         3.83519706971190   -1.32940266587069   -0.44967429145077
H         2.68063229988646   -0.85262424435828    2.26295100486645
H         0.91079450788972   -2.17966466261460    1.16210200330527
H         1.25328367514797   -1.38147290083881   -0.39245292634336
H        -1.11481793481964   -1.30484409777464    2.19019903319553
H        -1.28224686563442    0.43684092442857    2.18810756541134
H        -0.62368964125673   -1.68129265225473    4.37783752978768
H         1.41918067855227    2.67275921311365    3.23256534592418
H         0.62327392743319    1.89103020231938    1.90752346344136
H         3.07883052443459    2.68289071994235    1.65583921111228
H         3.76877618061947    0.80348947566480    0.23928127736962
H         2.08707787091607    0.94283380996097   -0.02854918664645
H         3.04724699294870    0.68048695715561    4.39811971826014
H         4.71245501965919    0.45428271737511    4.49683941121180
H         6.61286086360773    0.63164083190120    3.34096092237027
H         6.84328954390674    2.46037637319090    3.49836500249215
H         6.98104158979212    0.57417057852942    1.04694668764111
H         8.43915424442531    1.21644788682799    1.79434189632965
H         7.17887464844862    3.41951562514848    1.31148407480424
H         6.65473584824815    2.54661562596751    0.02855179245694
