39
 energy: -54.528861414381 gnorm: 0.108036195618 xtb: 6.4.1 (79825abcba525fcdf90b791dcacef51065a7a4e7)
C         3.12617506600060   -1.85055089834492    0.13842130454583
C         2.36477784964700   -0.86448196994960    1.03031957688619
C         0.88105793772979   -1.24556170072555    0.91345044369192
O        -0.10133208953485   -0.22464544711311    1.05925287459962
C        -0.49062383277671   -0.05065840111364    2.40670088295378
C         0.68470534500269    0.14372033902220    3.34622356192304
N         1.14595724737144   -0.72044709218379    4.19152504043766
O         1.41665810102980    1.26087290262433    3.34787958898294
C         1.60607760177875    2.14184530608538    2.22426656322466
C         2.91800816972801    1.67780850056572    1.56787098355945
C         2.76017511319139    0.54259232335613    0.52591452385065
C         4.05196002049322    1.49287024970580    2.61222900226295
N         3.98889547294360    0.45129474205068    3.50876254761206
N         5.05295931349353    2.27272084381834    2.37986382839904
C         6.30122534161049    2.16498002546505    3.14973297042981
C         7.46024649623642    1.84781308895468    2.19058145410217
N         7.41550996697723    0.49607391673178    1.62853910891637
H         2.91537637101156   -2.87910542072121    0.44795879295002
H         4.20722859793344   -1.81445860931352    0.31163635873328
H         3.01765244100341   -1.66332101353313   -0.92792978521344
H         2.80276291662803   -1.03928903832910    2.02676780758896
H         0.65209659670130   -2.12343547468242    1.51341085711021
H         0.75356515751709   -1.55939176946542   -0.13032482466322
H        -1.01895455042911   -0.95419674505575    2.73405223593445
H        -1.17161338096397    0.79828723545314    2.47360393233149
H         0.50304405091837   -1.52141289646201    4.28531240228635
H         1.80226347683662    3.13797575240012    2.64660710603656
H         0.78474296816566    2.11113844738281    1.50641885653312
H         3.21279961458228    2.61051647471429    1.05433456092659
H         3.58584929890998    0.42903728472308   -0.18989872920908
H         1.95992102154750    0.86159360975391   -0.15791691328190
H         3.02245785275857    0.18571270618050    3.69488389125318
H         4.57094547192212    0.66825622568624    4.30851564948420
H         6.23264232785650    1.39470445105268    3.92729837371670
H         6.56258979891813    3.05313620611804    3.73786946506221
H         8.41853802132914    1.95793863461535    2.71034702824256
H         7.27419180843415    2.57175973600871    1.39071433266787
H         6.55846398391845    0.35879959389198    1.08724176497988
H         7.37266394808792   -0.22677970674684    2.34272682469390
