39
 energy: -54.520524938170 gnorm: 0.126365078682 xtb: 6.4.1 (79825abcba525fcdf90b791dcacef51065a7a4e7)
C         3.25560845628735   -1.68825428198987    0.04430262075682
C         2.42033835604477   -0.76882690790938    0.94125151265908
C         0.94452714284527   -1.12104535808966    0.69994604480982
O        -0.13132732289089   -0.28286721268646    1.11057124452201
C        -0.54270920473140   -0.42255866437523    2.45544555642662
C         0.56694524135318   -0.30735134653946    3.48368623036850
N         0.84852755576109   -1.22948780143812    4.34650080820660
O         1.47607935057474    0.66883004582440    3.54950766272832
C         1.54604777470970    1.80487614810005    2.66689676749066
C         2.78744512512145    1.82850583603995    1.75820466846563
C         2.77217718861965    0.71432842844027    0.68225119610965
C         4.09072622516055    1.59630907860763    2.56954653076750
N         4.28008598576624    0.58450900763797    3.48225268624981
N         4.98680176449768    2.47814977154120    2.28046920930357
C         6.31568704316428    2.53216116115544    2.90786169074214
C         7.21394548620727    1.35193434236645    2.50277781234414
N         7.60143887067322    1.57877205661662    1.10868840655895
H         3.43101203703300   -2.70255375443881    0.41659834517701
H         4.23896776396454   -1.25995737161607   -0.17829357833658
H         2.88830310668361   -1.86860496960829   -0.96391225661525
H         2.75049869586974   -0.99060627699067    1.96940790005471
H         0.87890469269807   -2.17014931100791    0.97943260804898
H         0.77304973009129   -1.13193370532736   -0.38388395329107
H        -1.15309365370238   -1.32819215639422    2.55510790244772
H        -1.23054600138803    0.41275397165185    2.58985094869063
H         0.05388347908447   -1.88683196478233    4.33558713218262
H         1.69174044272184    2.64492777636075    3.36131969026264
H         0.57576079572093    1.83676489823627    2.16853436105037
H         2.81581195497529    2.75796092305135    1.16165262198660
H         3.72845328398152    0.76393922749505    0.14364557319061
H         1.97485124560364    0.96636930046744   -0.03227004331539
H         3.43175006688850    0.16399998346663    3.85997607759647
H         5.08693996842200    0.66532933065296    4.08881201466266
H         6.23184675123051    2.55784433604831    4.00099810594735
H         6.68817443499100    3.48105154130761    2.50301911945695
H         6.73389242983098    0.37044016221602    2.58538996702226
H         8.05638313737032    1.29808723353395    3.19984437685531
H         6.75540497511823    1.89264387903816    0.62693535997494
H         7.98191124660524    0.73274775109350    0.69167416101728
