39
 energy: -54.520770231792 gnorm: 0.112892112007 xtb: 6.4.1 (79825abcba525fcdf90b791dcacef51065a7a4e7)
C         2.92875161877153   -2.55561853740837    0.95510927562072
C         2.19779448561863   -1.23297786754985    1.20782154724133
C         0.69315875589402   -1.31614475138236    0.90872368549361
O         0.02037644625557   -0.06166817669961    0.95637869130144
C        -0.52245382553800    0.30544172882497    2.20857727310012
C         0.42418190361847    0.46548251249984    3.38337612885960
N         0.32379355138798   -0.24796029952807    4.45808295756152
O         1.37791495432587    1.40013405449697    3.35873537522146
C         1.84802150158901    1.91545804738316    2.09860072675838
C         3.04746459299204    1.26896478197935    1.38394708752673
C         2.81571329331068    0.00541253963216    0.51848341111439
C         4.24255483562984    1.05500058449879    2.35178553742168
N         4.18305145876986   -0.03691023106460    3.18654250988574
N         5.26977116315872    1.81699823482025    2.18342189998618
C         6.42675330851849    1.57966717410576    3.05951604626574
C         7.63394948112793    2.40917092639509    2.59207892250937
N         7.63735328241789    2.59758668647912    1.13963971155992
H         2.47819927529163   -3.34199513725806    1.56894017857876
H         3.98207605916669   -2.52590695403598    1.25445470943857
H         2.99356132324777   -2.90089998998140   -0.07470490787205
H         2.28568211083634   -1.01438777347210    2.28475778098608
H         0.37694540164264   -2.04415360294241    1.65239726219716
H         0.55735163369239   -1.77221976958310   -0.08009507118666
H        -1.34949070867916   -0.37278393107908    2.45084516735469
H        -0.93357154217919    1.31478245174895    2.17473938288282
H        -0.45073222378412   -0.92599848822895    4.52175161486992
H         2.09654686930918    2.95827866716868    2.34333851831819
H         1.04940281677942    2.04134817842804    1.36566233772633
H         3.23474759199139    2.17470972919306    0.77969798257628
H         3.81479222886287   -0.23396154058752    0.12917304057973
H         2.26846208840720    0.35086370164489   -0.37088348553469
H         3.27013500608323   -0.15028798036951    3.62575280786632
H         4.86680132165869   -0.03172318319131    3.93348208493033
H         6.57886807314601    0.49727425350008    2.97050639449296
H         6.09617936362622    1.75431588468346    4.09065911016914
H         8.62066536114721    1.99317984800209    2.82434973546133
H         7.53015477197340    3.34703122427455    3.14718902612833
H         6.73265618853220    2.87289650252470    0.74963644902753
H         8.03448873812891    1.75740817293872    0.72635926050003
