39
 energy: -54.524990054284 gnorm: 0.117019021903 xtb: 6.4.1 (79825abcba525fcdf90b791dcacef51065a7a4e7)
C         3.58950670017727   -1.77132021269130    0.74778167287379
C         2.48453196532007   -0.82671645957882    1.23182170274848
C         1.11358659756633   -1.31688639681613    0.74136562411815
O         0.03862802531150   -0.38496401466113    0.80921283913448
C        -0.56063810054903   -0.29030320611174    2.08567478130915
C         0.22691757924394    0.12232709741014    3.31505545217223
N         0.25260030566857   -0.63015659289837    4.36728256745953
O         0.98739497886791    1.20826059195693    3.47695024986835
C         1.50390324680730    2.08082152147882    2.45403534091055
C         2.83930457155748    1.82272267823286    1.73470554110862
C         2.71616304724990    0.62674465071139    0.75809249935194
C         4.02523920605302    1.52396874459801    2.69128158200473
N         3.89446130882442    0.88720609628406    3.90374169128154
N         5.17020596727592    1.84240899056610    2.18947781299713
C         6.41378751189916    1.47233017574736    2.88159143767467
C         7.59990400209481    1.91488997466408    2.00914371314892
N         7.70763670612463    1.07320717419280    0.81538683940210
H         3.37253177976665   -2.83317108952898    0.90130218206565
H         4.49531027888486   -1.51767360290331    1.30917825286233
H         3.85478104319632   -1.63935369198846   -0.29919072081689
H         2.56377464149302   -0.83712259480733    2.33132605395575
H         0.88706057445110   -2.24409298529078    1.26291337680870
H         1.18216444034509   -1.43149880264707   -0.34784124682153
H        -1.02943992817848   -1.25165698317637    2.32795052341417
H        -1.27984645124109    0.52879065894832    2.11317120345957
H        -0.31555093949281   -1.48270733683852    4.48577746726401
H         1.68704695082551    2.96903156780553    3.07586938973640
H         0.78872553505895    2.25601974833620    1.64863778405011
H         2.98065379819523    2.70780330386807    1.08878103702350
H         3.68508943788735    0.59191432292374    0.24138200351838
H         1.90725164891202    0.92835309115342    0.07655851963041
H         2.97212009215640    0.78118258816608    4.32471951271457
H         4.77734384055797    0.76735210249925    4.38500352616522
H         6.47473417828830    0.38169851845513    2.97877241270541
H         6.56227936083272    2.02614826583501    3.81661711206248
H         8.61154078745174    1.84841635050761    2.42481041391979
H         7.48444610577432    2.96377190129281    1.71756407645249
H         6.87172849298080    1.17610869238496    0.23483226989520
H         7.80204465239033    0.09025169441635    1.05890870785832
