39
 energy: -54.520278827983 gnorm: 0.119549878075 xtb: 6.4.1 (79825abcba525fcdf90b791dcacef51065a7a4e7)
C         2.49444367925193   -2.69572111168086    0.64038392107969
C         2.02261301336652   -1.33562353366963    1.16483654971123
C         0.58912791966212   -1.09880547529817    0.66549435420190
O         0.09497940460085    0.20877577672183    0.93874703706179
C        -0.55986668214339    0.29933428822572    2.18791133351704
C         0.33825942596599    0.28867118212105    3.41067067413684
N         0.24508225276745   -0.47008482037667    4.45454834017978
O         1.40203707345938    1.09526811820728    3.45024215240020
C         2.02543894235134    1.73706751257175    2.32154292233294
C         3.17847440700516    1.09338117797487    1.53190743432664
C         2.93390402835150   -0.18158681289751    0.68695641288433
C         4.38348074589217    1.01117180838878    2.50757846616874
N         4.13410915568823    0.28361304207917    3.64823666192838
N         5.44409380030405    1.67803630214769    2.20008571744631
C         6.68730838945883    1.63777196318517    2.98447778867858
C         7.55178625462715    2.79850632282125    2.46556517252576
N         7.81084205108921    2.74396581772014    1.02507665337357
H         1.56979386019156   -3.28122870140632    0.65981393953413
H         3.30101651398782   -3.09383680335933    1.26562547439189
H         2.83779623192088   -2.77305109196889   -0.38921111032368
H         1.88466634834129   -1.43652739225886    2.25391259382373
H        -0.08384916269000   -1.88807764828167    0.99289233875916
H         0.52711780726817   -1.09099698214681   -0.43008964709443
H        -1.35559801256680   -0.45163930048753    2.26223565148715
H        -1.00693788731597    1.29384780717264    2.18920519122513
H        -0.48990294653242   -1.18066064457362    4.31831905166464
H         2.50523169553354    2.61788164942215    2.77221093960483
H         1.34477968792391    2.09175556462057    1.54582507721232
H         3.56243818804442    1.91803944210514    0.90494940504302
H         3.94657043953324   -0.51588302695342    0.42280871724285
H         2.49938508996197    0.33292860674960   -0.18267629433476
H         3.18886038442820   -0.06961514039950    3.79284388838491
H         4.77314030688930    0.51278744145430    4.39962057724988
H         7.04892700896383    0.61661298374261    2.81388364275071
H         6.60373068268294    1.86204966466102    4.05487565731008
H         8.55133094712057    2.69403104901700    2.90214490275496
H         7.12435937443782    3.76630493041276    2.74694502773947
H         6.86565117073592    2.86154096184269    0.65202818838350
H         8.04261065181147    1.76665382440582    0.86519601032147
