39
 energy: -54.522393447694 gnorm: 0.124464840579 xtb: 6.4.1 (79825abcba525fcdf90b791dcacef51065a7a4e7)
C         3.26390244415537   -0.73508269641310   -0.55270330155463
C         2.34866779728350   -0.06391043158845    0.47657483535239
C         0.93213586545967   -0.65860812375057    0.48534160536608
O         0.08608623380816   -0.37169028646411    1.59461915012053
C         0.55155316341873   -0.94672625676372    2.79882420823427
C         1.86669344240141   -0.57708681867047    3.45886761755973
N         2.64942341957103   -1.36774904705283    4.11936761376093
O         2.38870611893110    0.64915658534522    3.37159064095955
C         1.67137489612969    1.76468379176964    2.80986713607812
C         2.52865095585751    2.28834594666280    1.64444755306554
C         2.25338962514773    1.47456085070099    0.35553898292139
C         4.01404151221124    2.21731132041142    2.09087957320910
N         4.44254135107907    3.13831300352756    3.01865799973306
N         4.71562539310762    1.27538330120014    1.55729572785800
C         6.11717538982600    1.02981316349762    1.92854704829167
C         6.31138258680250   -0.12749203143688    2.92193758929739
N         5.20843880564166   -0.03977754446161    3.88157967110427
H         3.06372938161402   -1.79188540185603   -0.34954637545228
H         4.30452704126606   -0.45229037390878   -0.36005909162436
H         2.98384473695386   -0.47309335300988   -1.57096952147078
H         2.90278190933948   -0.23176281250812    1.41470096289587
H         1.08273878082320   -1.72793753978640    0.35537425136259
H         0.39852980734659   -0.18783531492067   -0.35003140276516
H         0.52140252959682   -2.03275354177230    2.64946071848675
H        -0.21608544486942   -0.78952823336607    3.55707958103881
H         2.12909980760302   -2.25084410429368    4.23376220549463
H         1.57023323867378    2.51209704821847    3.61004216443356
H         0.64321340592997    1.52291091338873    2.53551584672033
H         2.27716299468252    3.35158490645215    1.48061076240251
H         3.01924384848503    1.85567289904410   -0.33383909872035
H         1.28860448904503    1.76501054589193   -0.08562137968626
H         3.68171812162886    3.63709641474771    3.47859250882433
H         5.29782001535471    2.96509713468809    3.53242268869637
H         6.42776174459252    1.97247218042437    2.39498690071381
H         6.59676332106779    0.89887541508360    0.95085178080614
H         7.29423625905447    0.02603832223946    3.38132154679224
H         6.23654873249013   -1.06185633014856    2.35637083566255
H         5.05296986044006   -0.98226584537885    4.24753059745852
H         4.29512856298869    0.09850251891057    3.45595041987076
