39
 energy: -54.518753021252 gnorm: 0.097999177376 xtb: 6.4.1 (79825abcba525fcdf90b791dcacef51065a7a4e7)
C         3.52531773251560   -1.90284050094471    0.81141443654596
C         2.55056153759014   -0.89663490977962    1.43185045361411
C         1.10454731562658   -1.30276059966681    1.10872548434212
O         0.24312948323769   -0.18911101709092    0.89340608072994
C        -0.63865781210244    0.17890611670484    1.93477548960039
C         0.12720274258085    0.09775016136466    3.24196941308754
N        -0.16632610392062   -0.77178234836164    4.15401506858289
O         1.27208009150200    0.78109430835804    3.31996973236330
C         1.57427344967913    1.89830081506920    2.46263250273819
C         2.92177867427583    1.70466729769806    1.74563680554328
C         2.83275553921949    0.48419105746831    0.79599848111575
C         4.14686090015764    1.51495098658378    2.68047039698616
N         3.88080405995835    1.24764389960931    4.00349334587532
N         5.31925695175241    1.44754743211807    2.14651878179484
C         6.56083749174559    1.18170288876264    2.88832675806308
C         7.67790232959877    1.81068523373700    2.03953710015923
N         7.51129558232413    1.76266737676760    0.58522344172906
H         3.32487186621042   -2.94499255413525    1.07958323504654
H         4.56787962619897   -1.68751402166473    1.06964311868177
H         3.37189992985009   -1.91316492726637   -0.26575464140283
H         2.78006798201355   -0.74139604032564    2.49886741754223
H         0.73247651786181   -1.99890204951869    1.85704932061832
H         1.05451833477587   -1.89177916827963    0.18419059542966
H        -1.52057842273988   -0.45118418560457    2.10173668275630
H        -0.98961901257804    1.17885254360383    1.67813399983341
H        -1.11915742104787   -1.15448424771049    4.05741588659575
H         1.59368839803322    2.80307234888649    3.08725064142524
H         0.84143881456438    2.10128554974771    1.67995159061773
H         2.91796559586247    2.62479105212655    1.13414394315829
H         3.85309821934049    0.29614233042510    0.43466797902965
H         2.20619037039561    0.60566669906187   -0.09979927390077
H         2.87718638454007    1.23040390433748    4.18134436181257
H         4.59335736493374    0.66062690377156    4.41959229476059
H         6.76572211917626    0.10964785518739    2.99489285247453
H         6.55993608194365    1.59271416938580    3.90523689359000
H         8.65053740071596    1.37066354395487    2.28645502864172
H         7.77844931113898    2.83272806247371    2.41877484143607
H         6.67381775807207    2.25040264534855    0.25793141327355
H         7.25105408176466    0.80396893505734    0.36707465124113
