39
 energy: -54.522932893458 gnorm: 0.118486837173 xtb: 6.4.1 (79825abcba525fcdf90b791dcacef51065a7a4e7)
C         2.38795075106543   -2.67128630392305    0.73755077541500
C         1.97907194052637   -1.29862591029135    1.28175822098863
C         0.54983533951240   -1.09258259788728    0.75722619835920
O        -0.12295573926381    0.15159460170876    0.92453961342194
C        -0.62645014372863    0.47707372539037    2.20438039098172
C         0.39391284935911    0.37196977814947    3.32227893870263
N         0.27791119253329   -0.38104222375581    4.36802737870065
O         1.60227547207007    0.93656254036934    3.25240608691993
C         2.06895458836330    1.79280679524851    2.19242744190532
C         3.25517339767696    1.07525863093429    1.52507694741373
C         2.86529646648791   -0.17453824181643    0.69724600514149
C         4.48670065062548    0.82751068441952    2.43759773963810
N         4.25381236548548    0.24588223740437    3.66238361731769
N         5.62006426945374    1.22237967170073    1.96460146963042
C         6.95862893114352    1.23617802269669    2.57331231134955
C         7.32211623914074    2.72698457021334    2.66958975587677
N         7.54124985336259    3.48131815641601    1.43344532959793
H         1.91913848104676   -3.43949093813911    1.36064839921195
H         3.41107640726100   -2.83972760984840    1.09085555541117
H         2.21677976411318   -2.70042657232652   -0.33659454833775
H         2.05615907580943   -1.26773208694790    2.38103100694764
H         0.01616822927894   -1.88950006182046    1.27021755898423
H         0.39448889749488   -1.24025540203579   -0.31900368371082
H        -1.40570207941064   -0.24083484295916    2.48730706930877
H        -1.06399692483907    1.47268553311987    2.12537772806869
H        -0.63909061517472   -0.84354847120384    4.46223630963107
H         2.46173835448350    2.71750120051085    2.63941453608921
H         1.21880648580333    1.97328393474447    1.53249181848415
H         3.73474617027650    1.77465814787391    0.81696954811245
H         3.78934177559275   -0.66975399424604    0.36872985295423
H         2.43631039268206    0.07372310149212   -0.28465578064851
H         3.27338853712899    0.12109202390001    3.91212979858350
H         4.81266706092900    0.28715130515283    4.50585132932929
H         7.62548011570946    0.74315862275719    1.85576272168094
H         6.96730663356291    0.72705662738535    3.54478408904279
H         8.15873936600399    2.86538011198455    3.36350253973263
H         6.46246892900026    3.22252937819775    3.13213094462991
H         6.82419032295905    3.04170475110515    0.85125931494599
H         8.44675963744483    3.21270821662559    1.05619479360572
