39
 energy: -54.519130929716 gnorm: 0.109046273803 xtb: 6.4.1 (79825abcba525fcdf90b791dcacef51065a7a4e7)
C         3.58234540455322   -1.59848365711303    0.45337732789351
C         2.51334749747938   -0.74674136427649    1.14570580829672
C         1.09493257551455   -1.24547000401150    0.82999421267856
O         0.18351111405901   -0.20183479487140    1.15977443350931
C        -0.49709257372679   -0.42129502341276    2.37881155889510
C         0.42693522412625   -0.21372276746331    3.56412628323620
N         0.63565219364716   -1.05325013510687    4.52626154395889
O         1.28591315505072    0.80892909182991    3.55283517028608
C         1.34894798713352    1.89959904361513    2.61423835532102
C         2.65075363064395    1.76858173103351    1.80461893087125
C         2.59931658080241    0.72039220337947    0.66534141246677
C         3.95744794130100    1.42495726653910    2.56960572847231
N         3.96882647294843    1.24217762289952    3.93309066510814
N         4.99403477280396    1.31031171427227    1.81032697499107
C         6.27663401361212    0.95261252290557    2.43439838391211
C         7.55233019462623    1.37722595330283    1.68861074064066
N         7.64871584799325    2.76437389456693    1.22858668408112
H         3.55004924360937   -2.62270334238701    0.83822138373731
H         4.52419725506962   -1.13437661773913    0.76563138734067
H         3.40424234642769   -1.57393704602334   -0.61975528433229
H         2.69025202342698   -0.82793838989702    2.23079075786625
H         1.01934036482805   -2.20985803493063    1.32726647941455
H         1.03767063742606   -1.54462462565259   -0.22425344217294
H        -0.92185965295967   -1.43089254978863    2.43321329880154
H        -1.19842052440658    0.40258575938182    2.24356720820657
H         0.01039958783442   -1.86452154759217    4.40552406722951
H         1.22972539729744    2.87891053936051    3.09990412526496
H         0.53427419942369    1.96823314046677    1.89144184956461
H         2.71658268568046    2.78638090967559    1.37998125074102
H         3.57132130661829    0.87089269866592    0.17587470869394
H         1.83776139548712    0.89589216354958   -0.10862714287267
H         3.08829293277617    1.07309683489003    4.41811540763693
H         4.89071848489192    0.95361792896160    4.23691285280005
H         6.20717933623026   -0.13573637994189    2.54976198275256
H         6.42644488325963    1.50138008349514    3.37218737131915
H         7.73852560394464    0.76587711024176    0.79855995991164
H         8.36202181701677    1.15561887867504    2.39131429359074
H         7.51026329947924    3.39442381957439    2.02246504624232
H         6.89487996440028    2.84851252107154    0.55104008987955
