39
 energy: -54.524912288995 gnorm: 0.108493806484 xtb: 6.4.1 (79825abcba525fcdf90b791dcacef51065a7a4e7)
C         3.46403720964382   -1.53193870654034    0.24414824757657
C         2.54338328504932   -0.63198722325990    1.07482500198921
C         1.09842856783551   -1.10707686814413    0.85872167252395
O         0.12552797784920   -0.08875179080247    1.07108222033933
C        -0.56688050579245   -0.14567439539935    2.30184052367751
C         0.43573810022858   -0.22802340798005    3.43756020474990
N         0.46639977487237   -1.20688710139228    4.28311267157086
O         1.40144586935233    0.69234438923482    3.50173989252651
C         1.48624391209937    1.79545369649334    2.57953738401078
C         2.77630281288920    1.80462074314485    1.74107981830136
C         2.85381541289466    0.79554247564657    0.56845320311226
C         4.15498755472503    1.74841796204405    2.45298025906514
N         4.21453302391270    0.82129479640228    3.46763587441106
N         5.08086362939880    2.48837704190658    1.94369238826030
C         6.45621191199475    2.43579868902581    2.46150245142137
C         7.35132362874263    1.36467554689575    1.81701292509626
N         7.03295117165589    0.03870102632899    2.35135578301798
H         3.36179891112431   -2.60320667306332    0.44441364025768
H         4.47894910146392   -1.24110339367218    0.53629807934593
H         3.41393184872290   -1.24288105350884   -0.80364560928490
H         2.78672806115748   -0.69373054585211    2.14826275111653
H         0.80944427496846   -1.96012246055644    1.46850807626458
H         1.00120876198614   -1.26249541340135   -0.22322283766667
H        -1.29770835662198   -0.96280684847848    2.33114915535265
H        -1.23924611464576    0.71268051497092    2.31094039390523
H        -0.34785743925864   -1.83502316911200    4.20494660987531
H         1.52419429731652    2.74074287480406    3.14000542628828
H         0.66731535391760    1.89308258879723    1.86493019920020
H         2.74692947494808    2.78958395047416    1.24152952665810
H         3.85907286616633    0.84800879032411    0.12831007120391
H         2.32788849930472    1.22586462664385   -0.29642690130306
H         3.40133651625540    0.45414507627716    3.96067659409487
H         4.96889137128404    0.87590454054876    4.14100111942052
H         6.46158707574718    2.45949661018364    3.55788083413864
H         6.77734858463803    3.43649142322695    2.14761933670708
H         8.41986227222806    1.56900392954349    1.94770955626358
H         7.17727195660888    1.38007847995845    0.73628573098528
H         6.01627659779416   -0.03681125316280    2.43529371902677
H         7.51834286015388   -0.10391199491713    3.23366733237603
