39
 energy: -54.527717365356 gnorm: 0.096571548230 xtb: 6.4.1 (79825abcba525fcdf90b791dcacef51065a7a4e7)
C         3.68330678019008   -1.37939580522516    0.22136505700876
C         2.59107414299626   -0.61774387570316    0.97929274432201
C         1.22185973520355   -1.16965687762952    0.55391185549622
O         0.17092021186685   -0.26704831222658    0.88473268332813
C        -0.32892464608584   -0.44674470905753    2.19442730784899
C         0.72646904767253   -0.52005981978228    3.28192612051436
N         0.89317827181419   -1.49861169444475    4.11181617753659
O         1.38358441984749    0.58289387054180    3.65000213810727
C         1.56802303346521    1.82368937193063    2.94225412957745
C         2.69927323176773    1.87087238630738    1.90043175593649
C         2.51289711109555    0.90211091770895    0.70625192773743
C         4.05051952616274    1.77915473953883    2.65967739244105
N         4.22267881790527    0.89012833856416    3.69535219261264
N         4.92659182915831    2.61547973733170    2.21558515769107
C         6.32213005493452    2.57322089105151    2.67727975426754
C         6.94885734268273    1.18018280588500    2.50248178903879
N         6.72196605797838    0.60230489901449    1.17595654929098
H         3.62368659460467   -2.43854473093964    0.49122231186751
H         4.69164185893479   -0.97421664324071    0.35947030857393
H         3.45446448537819   -1.33604245054833   -0.84150301014319
H         2.64460231770216   -0.66154477788608    2.07952623358648
H         1.06842845903459   -2.13141535833906    1.03818206182490
H         1.21543669196373   -1.27235996074606   -0.53861794138118
H        -0.79050237251087   -1.43990416012558    2.25147204505319
H        -0.94650636604546    0.42604252170959    2.40835894551135
H         0.22398174696059   -2.27811259065462    4.02107463966335
H         1.89200833940736    2.43890098001468    3.79412530277075
H         0.68738403641300    2.18513942050698    2.40871159749201
H         2.64666789173876    2.90020019448992    1.50258411341831
H         3.34203200796450    1.04639155940098    0.00003691200215
H         1.59128724715909    1.19829559728210    0.18404147297310
H         3.42048021651040    0.31415440891264    3.94815264834223
H         4.93669530165845    1.17817714337137    4.35312711534009
H         6.42980939809332    2.91398271494608    3.71406448693975
H         6.91783121521835    3.22295402592784    2.02457438440050
H         6.44826180397977    0.49720402093354    3.19785983037176
H         8.01730533416048    1.21718837271276    2.73817646682681
H         7.55572291307714    0.74594525441355    0.60098539710117
H         5.93341917063914    1.11671400170392    0.79125625379913
