39
 energy: -54.522552782836 gnorm: 0.118996942778 xtb: 6.4.1 (79825abcba525fcdf90b791dcacef51065a7a4e7)
C         3.56157521258424   -1.54793651450999    0.32574560094262
C         2.51684905791201   -0.59740634592215    0.91952991621063
C         1.13658920452022   -1.15006751921921    0.53255022067297
O         0.03842073470358   -0.40400184819977    1.04833169651925
C        -0.24447101722165   -0.51674193975277    2.42843952168047
C         0.89765336914848   -0.10840387602721    3.33986506978328
N         1.47785631582089   -0.90974432761005    4.17370634109627
O         1.26138809065642    1.17148938604870    3.45544059938360
C         1.32357718869187    2.02652649222441    2.29805458072981
C         2.71599287064104    1.94817729606849    1.64814145482127
C         2.68739814898685    0.88661306270368    0.52050498996270
C         3.83118323564836    1.90423481244064    2.72756356523251
N         3.76877535883277    2.73472580766122    3.82256082859320
N         4.81016322203120    1.16077076793483    2.33638651621948
C         6.01285059273964    1.11649804240520    3.18140584216132
C         7.23976424103497    1.20576948670222    2.25912061661283
N         7.31681347960264    0.29416531202427    1.11538420255518
H         3.46418174183278   -2.50513682022315    0.84771881285113
H         4.56759322188211   -1.16981235272470    0.53771900823140
H         3.54292506352672   -1.69362843296505   -0.75238373451443
H         2.63802555956075   -0.69200875260984    2.01116361815931
H         1.09226440005852   -2.18882483687757    0.85201336346345
H         1.10938420790063   -1.29149016717456   -0.55532387429280
H        -0.54358740984534   -1.53265707857738    2.71325455176925
H        -1.06598774346030    0.18573542688977    2.57185253251910
H         1.10514092987990   -1.85739782927137    4.01025681580598
H         1.17093207200474    3.00595351275695    2.77403616374581
H         0.57450319419841    1.83355791212024    1.52832080030988
H         2.90679584231367    2.87852435333656    1.08368209212141
H         3.66489728585236    0.88585556416697    0.01899119765632
H         1.80046144487614    1.15910619452085   -0.07015958208531
H         2.83037320672616    2.72633855936982    4.22069108055310
H         4.39448717240061    2.39597658770987    4.54311145173099
H         6.18362660815847    0.24107787562285    3.81945844557124
H         6.07398128450935    1.98906641952933    3.84316469767127
H         8.14899855664737    0.96250873959677    2.82012302453244
H         7.18510042626195    2.24884589165176    1.93123956292105
H         6.33461706906877    0.20207115741767    0.84485925156651
H         7.66139101287997   -0.58196950649361    1.50018459099809
