39
 energy: -54.535328654974 gnorm: 0.103175065930 xtb: 6.4.1 (79825abcba525fcdf90b791dcacef51065a7a4e7)
C         3.38481055344029   -1.64434986361039    0.30967739493378
C         2.43482653550009   -0.67300780339768    1.01789002724138
C         1.02220068929771   -1.16038077154538    0.66115380224523
O         0.01981533101502   -0.25229237333976    1.10749174005106
C        -0.41068328281549   -0.51301799726172    2.42814640097318
C         0.59324483843634   -0.32619703056359    3.55024745760590
N         0.67352131910202   -1.09804606779119    4.58556283310245
O         1.32714124209238    0.78942339072231    3.57421564279740
C         1.47977213346775    1.76100481580663    2.52196491325352
C         2.82592949423705    1.71663884788821    1.77816450040090
C         2.80311775048614    0.75774539584698    0.56189838816506
C         4.05090363414359    1.41501777650321    2.68325878170240
N         3.93818399478114    1.82456185106486    3.99176822909044
N         5.12420715130721    1.15183261795944    2.01774154111329
C         6.41721629872548    1.00275352625947    2.70212258009569
C         7.45003582021172    1.26641420178710    1.59412284409127
N         7.30163854527087    2.66826700662713    1.19678330777569
H         3.20794463069277   -2.72062687044067    0.40198229839098
H         4.38639001582291   -1.57379917833354    0.74767742434654
H         3.47097358202477   -1.38401939895117   -0.74329022793171
H         2.58623200813237   -0.81347478653716    2.10077640815372
H         0.82289002966106   -2.16981348171379    1.01379953627526
H         0.98025055776284   -1.17012011489498   -0.43536608304092
H        -0.71839910679852   -1.54688903848578    2.62587199671128
H        -1.19149385478706    0.22560361859947    2.61173402142999
H        -0.00716403792449   -1.86988302429141    4.51763044332220
H         1.35423002029260    2.77529973136158    2.92765107189039
H         0.62753676703171    1.67208515742403    1.84622312926282
H         3.09077557459293    2.74548118665356    1.47500485784065
H         3.84636638665210    0.72048242901785    0.21945863319959
H         2.10578139512597    1.06067075694092   -0.23292994599259
H         3.03972569393219    1.58410196736320    4.40905513631114
H         4.69772046656623    1.49042456720683    4.57221299513272
H         6.53934587555061   -0.01485570008008    3.09224034484615
H         6.49922193882383    1.65542585120057    3.57980772982236
H         7.15052380761416    0.62076726625238    0.76103273855628
H         8.48117285866851    1.04139678260878    1.88502845112203
H         7.41131963282083    3.28876956245846    2.00258819019823
H         6.32870424752266    2.76861690118747    0.91795363398306
