39
 energy: -54.525098309405 gnorm: 0.108649819157 xtb: 6.4.1 (79825abcba525fcdf90b791dcacef51065a7a4e7)
C         3.62184852584177   -1.04101031424749   -0.12096071951882
C         2.56358773172803   -0.50200464616708    0.84707707009058
C         1.15520286133705   -0.96113770683747    0.43970273769460
O         0.10472758087463   -0.17679357855887    0.99641136756477
C        -0.24119532973426   -0.58646444538167    2.30405918608091
C         0.83221905665016   -0.47524220774272    3.37049991115859
N         1.09233184588237   -1.48534440525165    4.13607691851845
O         1.35526598286844    0.68400833701333    3.77835714815762
C         1.29190415408780    1.81574595064733    2.88973259164532
C         2.58354397406323    1.89087651719063    2.05704471923506
C         2.54114334706825    1.04167002405233    0.76230503808771
C         3.94142422950282    1.78305503452270    2.80220802879470
N         3.98700024704620    1.35382378945638    4.10846696823138
N         4.91439595630276    2.12240810413219    2.02611163309503
C         6.30519825396395    2.16196312506190    2.50211481036136
C         6.99451675556496    0.78984203042943    2.57970499342631
N         7.31494510552569    0.44968454304951    1.19164508745731
H         3.87259835245391   -2.10623278219212   -0.14544677504319
H         4.57812841657794   -0.62471779878897    0.21402011780911
H         3.58684128703706   -0.62655582667306   -1.12641524747632
H         2.89237870929835   -0.79554557564602    1.85753623827435
H         1.06365042866737   -2.03279617353793    0.60158061601552
H         1.03162537693891   -0.72202504775271   -0.62414136700496
H        -0.54610300580949   -1.63854514356113    2.35726926579541
H        -1.09830790144878   -0.03137750605748    2.68637844017097
H         0.52845437865058   -2.30694143562972    3.87018184369633
H         1.18081515596066    2.73691202264144    3.47985850840096
H         0.43707341782848    1.73958352772425    2.21571291726782
H         2.54887515625782    2.91818813816446    1.65208209963930
H         3.30850039699957    1.43619364137053    0.08220540631725
H         1.61235927375444    1.34116043274762    0.25490035466342
H         3.23910298787414    0.74712448510532    4.44274571227176
H         4.87479320898401    1.05361745913615    4.49208046279766
H         6.43168580097489    2.71504852602733    3.44058883017937
H         6.81220595572387    2.83024142748124    1.79544330070143
H         6.31688830932518    0.06320723902476    3.04168778894079
H         7.90376923554101    0.96099282741393    3.16491421925107
H         7.59636753885654    1.29452882034133    0.68824223418203
H         6.52401567147386   -0.02230467124308    0.76028207561215
