39
 energy: -54.518056002003 gnorm: 0.116215399303 xtb: 6.4.1 (79825abcba525fcdf90b791dcacef51065a7a4e7)
C         3.46814999655516   -1.43641824158363   -0.04389610468324
C         2.55989053072286   -0.58550629412252    0.84972225678738
C         1.09684165617209   -0.91235707900514    0.51362479840405
O         0.06881716548160   -0.09849613679309    1.06987521647338
C        -0.34095932076931   -0.52127505588899    2.35470084664406
C         0.68960968377572   -0.46311840301225    3.46664956551362
N         0.90677298165678   -1.44096125834211    4.28563473115579
O         1.37108427668531    0.64076361185057    3.78417797715079
C         1.46803779693403    1.72460600890920    2.84057636953675
C         2.68659395013564    1.79069259927751    1.90350617265212
C         2.82182572680639    0.92211083178872    0.62813234803371
C         4.00155943043069    1.61956233953687    2.71116503682333
N         4.16881186714495    0.69244381498458    3.71371524372394
N         4.89747958643676    2.44798249802236    2.29258743231453
C         6.30258567367772    2.62510062888571    2.68854284456412
C         7.16516399834955    1.36321646436841    2.52270101599055
N         6.69408207883073    0.73395379156661    1.28690084720015
H         3.16235290712861   -2.48001405832696    0.08088315309740
H         4.49522361808486   -1.27818998694207    0.30260994625496
H         3.61514961275757   -1.13479466713630   -1.07895705277465
H         2.73956025838543   -0.84652778933292    1.90560297022353
H         1.01132531229081   -1.97967073539696    0.70484894966610
H         0.90691614494012   -0.91014324299739   -0.56717764940390
H        -0.81552057262612   -1.50940734782865    2.32214350274000
H        -1.05388343029766    0.20137935813343    2.75274769094313
H         0.28313535260680   -2.19710454913554    3.96469377049164
H         1.68913849621901    2.56001753179194    3.52053104944685
H         0.53562330984442    1.88727672952272    2.29745550899834
H         2.75921170942813    2.81820731800917    1.50412418655477
H         3.87316382303567    1.05605141969126    0.33870297133436
H         2.13232771464924    1.28940784651175   -0.14612811163624
H         3.42324740524607    0.08169353393656    4.04582119031521
H         5.05232037491879    0.23671355723899    3.52088848669440
H         6.32102170575945    3.00651182724443    3.71656115769102
H         6.64519795445220    3.42295454583715    2.01840608961822
H         7.03491312323946    0.56082424079114    3.25741726078969
H         8.20095042377295    1.71515357632796    2.48040144970340
H         7.48198339605340    0.20108685133992    0.91055099717605
H         6.53854117715332    1.48464998686560    0.61856000130135
