39
 energy: -54.534712743725 gnorm: 0.108195337827 xtb: 6.4.1 (79825abcba525fcdf90b791dcacef51065a7a4e7)
C         3.52722898203355   -1.69267906122318    0.44597821376760
C         2.46556685560569   -0.74944292136271    1.02106019553001
C         1.03831653652041   -1.04567691164230    0.53576968036548
O         0.01792525125872   -0.15186556246394    0.96996020202790
C        -0.49706851090679   -0.32037689369860    2.27526516229475
C         0.53102927350209   -0.33509371446715    3.39091877436580
N         0.68383679059061   -1.35214959255356    4.17597956681577
O         1.15954077858631    0.80108929285955    3.70372681506954
C         1.48323404717385    1.80017346855102    2.71805355001921
C         2.80607462845686    1.70782947631186    1.93772512592964
C         2.86325273757927    0.71927617080403    0.74659401610274
C         4.08130318356851    1.61684444588115    2.81877362512890
N         4.05629342579989    0.62037463314630    3.76695688094424
N         5.13489673083272    2.22581154859951    2.39068509411664
C         6.45205483061514    2.04065443847587    3.01781030790264
C         7.30536445258959    1.25293281362090    2.01021223989193
N         7.37902345225600    1.78039641894680    0.64586322247700
H         3.40730786824327   -2.71821056860435    0.80940358945185
H         4.49744068668036   -1.19161390191894    0.53318945566153
H         3.31614105870623   -1.76985860380890   -0.61864474522995
H         2.59328367012152   -0.90990220440477    2.10422165301725
H         0.74957289448819   -2.06370944316462    0.78731496832976
H         1.00994163699688   -0.93446510234987   -0.55557688637112
H        -1.09814997232265   -1.23351153019855    2.36221343513987
H        -1.11182330440612    0.56084961306752    2.46086651881032
H         0.09314543085263   -2.17864095907213    3.99800372366842
H         1.51912166281100    2.75471540946429    3.26275351104488
H         0.63200480241796    1.82588979259707    2.03571473999204
H         2.84656048070922    2.69896225324007    1.45132763261771
H         3.84650512239389    0.84655255594498    0.27326887245321
H         2.12363733572598    1.14508385300593    0.05272749902035
H         3.16030812754300    0.43028250455358    4.21445209307833
H         4.84409955469240    0.60981159769966    4.40312464861136
H         6.46197755347185    1.54389667653426    3.99544485552823
H         6.81372099947458    3.07522629743183    2.97426752966802
H         6.80083130560534    0.28242726951601    1.94562254203122
H         8.28921492327050    1.07408634612837    2.45580700873345
H         7.34281443860839    2.80246450472671    0.66685385524442
H         6.47725747199259    1.56252772233726    0.22900763121714
