39
 energy: -54.528501108098 gnorm: 0.103129012201 xtb: 6.4.1 (79825abcba525fcdf90b791dcacef51065a7a4e7)
C         3.03101437348834   -1.51799498286428   -0.15301069856587
C         2.31392994091132   -0.60206646260502    0.84418790614316
C         0.83950475636132   -0.92474045173547    0.55738337834036
O        -0.09979166505597   -0.03151764337986    1.14771699401680
C        -0.23711481618231   -0.35672715015494    2.51622597479425
C         0.98148620726978   -0.16220918867730    3.39886914465831
N         1.49791731758383   -1.00677487708383    4.23198436709697
O         1.43157635562535    1.08494007542038    3.55957077406614
C         1.45756303096387    2.03634403899005    2.47852797056375
C         2.72997193865907    1.89094099999588    1.62577908965206
C         2.66169386833775    0.85814019350142    0.47340721566506
C         4.04143366138025    1.72999481488690    2.44119132042020
N         4.11813377681124    0.83281290892059    3.48129265105666
N         5.01361163994483    2.41336909170235    1.93916574379748
C         6.42847399280248    2.30114707429792    2.32393241386092
C         7.08005067626552    0.92613618804594    2.10327563221872
N         7.06550974187121    0.18974737766516    3.36921868991714
H         2.66676523371278   -2.54790075502722   -0.08379639441874
H         4.10640986512889   -1.68239192282178   -0.02463222608774
H         2.81335582897601   -1.21135557017992   -1.17405617734046
H         2.69696173931467   -0.76302952667138    1.86530251985929
H         0.54528257576855   -1.90338122345164    0.92985312974447
H         0.72572394021674   -0.83240957476492   -0.53015488530827
H        -0.43636425476177   -1.43513803577315    2.51437535475993
H        -1.03299562374206    0.26924821648942    2.92077518783235
H         1.03552416953507   -1.92016066613251    4.10708982473464
H         1.33195441795956    3.01258197058674    2.96875064655257
H         0.55247111048550    1.92539926006106    1.87907930986007
H         2.81309165444137    2.86099066881628    1.10360999088650
H         3.61661222379340    0.82889852531630   -0.06908435248117
H         2.00527779591515    1.27080018571399   -0.30673606822963
H         3.32945105458028    0.34569154120955    3.90540226736028
H         4.96814413503718    0.66799375919860    4.00643694865973
H         6.61759505811219    2.70091496695512    3.32745366352866
H         6.87709001886121    3.01607383692470    1.62346063935819
H         8.11047491168387    1.00462792725662    1.73903467491509
H         6.35498708878774    0.39968098433023    1.47428420297926
H         7.55575617596763    0.75986109567898    4.06276295938340
H         7.38642947233883   -0.76772548027736    3.24808451474899
