39
 energy: -54.520997450818 gnorm: 0.104048467995 xtb: 6.4.1 (79825abcba525fcdf90b791dcacef51065a7a4e7)
C         2.92917912294989   -1.42051648087684   -0.44878133679011
C         2.28332328559979   -0.58001926621291    0.65755262010782
C         0.76110506714300   -0.78298227756582    0.61325111272519
O        -0.09440827596500    0.15049258768845    1.26543213803253
C        -0.45396870021886   -0.08279000003177    2.61218051907348
C         0.69653815177073   -0.47408507427251    3.52053438212476
N         0.90489718060443   -1.64796977481580    4.02318181702661
O         1.67346880928321    0.43599676432638    3.55437112028779
C         1.65929944880380    1.65849602753231    2.79292967614757
C         2.79034896798723    1.77661271302988    1.75653087324768
C         2.63888240359958    0.91406208936439    0.47889064005173
C         4.24533505725988    1.61978972667533    2.27533199098111
N         4.42333824771154    1.10487364937844    3.53858387460493
N         5.10589190788030    1.97091681624605    1.38073054684048
C         6.52470113673313    2.09153162738291    1.74802753580901
C         7.20781092140149    0.88537251033176    2.41318745713703
N         7.15090418494060    1.00749762463280    3.87159028828232
H         2.60503637569625   -2.46527055245905   -0.48871069563466
H         4.01280598285525   -1.51005802335919   -0.31567242959970
H         2.55546367773085   -0.93493832471428   -1.34794064215466
H         2.77048720508592   -0.96299703149620    1.56930743511508
H         0.57307129663769   -1.79497007938992    0.96476518221446
H         0.41411819674324   -0.64890534789530   -0.41914126107313
H        -1.29566923489969   -0.78347687550477    2.55515517733736
H        -0.95396480140469    0.80852578970256    2.99230092939715
H         0.03854354685099   -2.18570495106952    3.86841772227282
H         1.79157516174488    2.41102917690627    3.58370984104859
H         0.73942378288121    1.87828111041810    2.24853820411352
H         2.79932275221481    2.82413753277531    1.40556505425995
H         3.59387260078865    0.97351185106234   -0.06099885654235
H         1.89363843377108    1.32298728115352   -0.21909608090374
H         3.80006614166602    1.47704366905607    4.25426396348672
H         5.40663978029450    1.09527367661261    3.78042149601448
H         6.59120837650238    2.93136990000223    2.45008487529234
H         6.94166251531201    2.48137742267200    0.81143756121589
H         8.23404491066284    0.86842872933899    2.02956884623426
H         6.65115628554045    0.00211352627851    2.08380669864139
H         7.84881749345631    1.66422818810772    4.22935676279356
H         7.16176974123551    0.11538236767414    4.35988276420491
