39
 energy: -54.533037595267 gnorm: 0.091703260215 xtb: 6.4.1 (79825abcba525fcdf90b791dcacef51065a7a4e7)
C         3.35966908087650   -1.53437883298818    0.00114456636312
C         2.48654949816184   -0.63985906729159    0.88716755923716
C         1.02580458120090   -1.04849158792846    0.64314156878850
O         0.02530896433522   -0.19748548883879    1.19397335003669
C        -0.32656971698199   -0.47773646203080    2.53377799020443
C         0.82834058031577   -0.32192304594653    3.50526603127333
N         1.28896890444638   -1.32811606463992    4.17569157084838
O         1.39504280844055    0.87775233442088    3.65828558830456
C         1.41340944357312    1.84027350255240    2.58697144231630
C         2.75888274930459    1.82812755279924    1.84071334768757
C         2.69644835411879    0.86949871327762    0.62562776517507
C         3.99396369252617    1.63130082725846    2.76080403760150
N         3.92682060533896    2.41442154833898    3.88989339903179
N         5.02566246768263    0.97235326226354    2.35393083780381
C         6.31594843207429    0.96792162491569    3.05935065701669
C         7.30485384520569    0.77488167179137    1.89801599685965
N         7.09166431671384    1.88638895929689    0.96839590189076
H         3.22648399352324   -2.59123189035851    0.25313126195962
H         4.39251900602940   -1.33092855254331    0.30414928706837
H         3.15848020619363   -1.35546828322465   -1.05310914358602
H         2.77364443725494   -0.92545879249254    1.91250008893217
H         0.88503383822271   -2.09700686515824    0.89580234781661
H         0.85607525236232   -0.98485152474397   -0.43914879338622
H        -0.57951115612470   -1.54201085973778    2.61133074772606
H        -1.16250946511788    0.18927296960620    2.74646233321154
H         0.69304478517924   -2.16679744101997    4.10380514608970
H         1.16315555523316    2.79312035201609    3.07543039557715
H         0.62252781685822    1.59166897912208    1.87736531428218
H         2.90318348944224    2.86302471201705    1.48192237832017
H         3.68016706510959    0.92216737133394    0.13926911267036
H         1.94204068895430    1.08630839920900   -0.14486330176185
H         3.00455970339540    2.77199654964158    4.13637175554750
H         4.63483571410128    2.31723933508145    4.60734006383978
H         6.43734437676491    0.30255798297603    3.92259470349043
H         6.59191229540462    1.98146119699320    3.37497510873939
H         7.07314976393396   -0.15364593136528    1.36439043210537
H         8.34649464409709    0.80541513038733    2.23350766425965
H         7.16599509583214    2.79027434877150    1.44151429031865
H         6.15562036522571    1.79075836704663    0.58226930734795
