39
 energy: -54.507321181416 gnorm: 0.125262083859 xtb: 6.4.1 (79825abcba525fcdf90b791dcacef51065a7a4e7)
C         2.92161003326505   -0.06349763792404   -1.41880802150437
C         2.92247580550109    0.14135547953078    0.09960385122251
C         2.13709595921440   -0.98376437796118    0.79068180524505
O         0.85816890185646   -0.62207234196863    1.30268079913021
C         0.57340826002530   -1.10143944942001    2.60135483421197
C         1.61888208126884   -0.62419562107605    3.59186352342331
N         2.42736047975519   -1.43818403084478    4.19007653366461
O         1.78085381363193    0.68751050442720    3.78416440002224
C         1.29075482589780    1.63422693777789    2.81564526588190
C         2.37145043676670    2.13819421393103    1.84329703705179
C         2.28766360612845    1.51218336540420    0.42894543655332
C         3.74259346153959    2.13873952561919    2.57178800027054
N         3.70517791105397    3.03042436003003    3.61874896569646
N         4.72594565608191    1.44571351338362    2.10606977977536
C         6.08360103963161    1.48107877591780    2.66998093949670
C         6.10182645017289    0.07607941365982    3.29411327038230
N         5.73874260927397   -0.97618681335706    2.34227417695423
H         3.30262472059614   -1.05221397057131   -1.69347467289205
H         3.63433451456802    0.65670850262758   -1.83511292706461
H         1.95021367346083    0.19111815963878   -1.83773133358894
H         3.93684529917673    0.18198843485363    0.52937239189898
H         2.69457799431963   -1.29338996487453    1.67180832105388
H         1.95998636170518   -1.82827907820116    0.11271599377371
H         0.60122653730172   -2.19393730535299    2.50998538737678
H        -0.32041650626502   -0.64675129595374    3.02945231518426
H         2.20356676800809   -2.39020022866378    3.86256897336079
H         1.07206604507303    2.45087279998680    3.51878184343332
H         0.42125437949826    1.29804293933155    2.24838156473484
H         2.10625353940659    3.19772229411694    1.67705429261223
H         2.70237033916568    2.27719659541120   -0.24172162357472
H         1.23124428901875    1.26448399714591    0.24889791556751
H         2.82515175698225    3.38054557466807    3.99577115085475
H         4.47398751974704    3.10157223640234    4.27398117895799
H         6.16688052188630    2.34917793661176    3.33489027127953
H         6.78915362548729    1.49911678428958    1.83039324562607
H         5.33717343393991   -0.06884350998118    4.06541713221987
H         7.15198182502017   -0.02027711122015    3.58803777869055
H         6.11490395594593   -0.58640964379874    1.47454652865793
H         4.72850623430718   -1.04115496544950    2.24419848028991
