39
 energy: -54.522214454535 gnorm: 0.107840381526 xtb: 6.4.1 (79825abcba525fcdf90b791dcacef51065a7a4e7)
C         2.61071240857143   -1.95126099753324   -0.05714905312698
C         2.06123049487216   -0.78297964986372    0.76791366097306
C         0.52677000474734   -0.77339119020762    0.69278714579839
O        -0.30097634072061    0.17831705873348    1.35438060204693
C        -0.51922471312357   -0.02031317823210    2.73653448537774
C         0.80030061451344   -0.16772981503076    3.47070466517919
N         1.10582579970093   -1.22730077852931    4.14748895232184
O         1.75227749813956    0.76901635006274    3.46487092793447
C         1.88801348160041    1.83828665930762    2.50949924286630
C         2.95410750478329    1.56835773584013    1.43342815801156
C         2.61122275419448    0.58086701077697    0.29036542997513
C         4.32274254661004    1.33477754676026    2.12841808372161
N         4.63963107969850    0.08149543565080    2.59905023958122
N         5.05034113391734    2.38635546281095    1.95828801974371
C         6.34670941032511    2.78966343372972    2.52330712055358
C         7.40434107586486    1.68262101971147    2.38270533185072
N         7.27337699145697    0.79876690467876    3.54319749036232
H         2.18524384300607   -2.86431628618480    0.37119717386173
H         3.68175004048331   -2.14399270162447    0.06821331327078
H         2.38128913502153   -1.92197308693149   -1.12037245940961
H         2.40819595805985   -0.86127221997983    1.81136119117243
H         0.18274916699205   -1.75140805953715    1.02168047691309
H         0.17407394084105   -0.63462675181668   -0.33704800860054
H        -1.13751913750287   -0.90888415964025    2.91211182000642
H        -1.12718349054437    0.85102429002198    2.98166426698107
H         0.33371393958495   -1.91024419333071    4.11415381948131
H         2.19129178870323    2.68180986909342    3.14638788688573
H         0.93245296969360    2.12845064156842    2.06955859751226
H         3.16351104319359    2.48197874908686    0.84860972153931
H         3.62428465314432    0.48184635470484   -0.12306138496713
H         1.97143736922688    1.16648560458828   -0.38603636055154
H         3.91194002306916   -0.59531724461578    2.82613380507626
H         5.43532372568921    0.12456157829077    3.22393264083482
H         6.14002150091383    2.99799658713467    3.57995911903221
H         6.49091809561337    3.73674589368977    1.98919479123588
H         8.38717728250048    2.16310326668825    2.44415719269596
H         7.28679725366024    1.21020926463201    1.40213759763071
H         7.11600538324303    1.38455420150442    4.36688571416052
H         8.08294833432807    0.21237774664944    3.73070543775345
