39
 energy: -54.516295792575 gnorm: 0.114150520700 xtb: 6.4.1 (79825abcba525fcdf90b791dcacef51065a7a4e7)
C         3.91972522278665   -0.94578773603709   -0.01358392528508
C         2.86822251601808   -0.41764224981908    0.96771347481285
C         1.51800410538857   -1.04460748934349    0.58806918612342
O         0.30546969561357   -0.48380670611392    1.08191257862677
C        -0.28228892130963   -0.81905590934561    2.32271209669050
C         0.45941037886086   -0.40799184658213    3.58080313741703
N         0.43732435346426   -1.18347231147999    4.61628151864219
O         1.24953207030424    0.66594596837754    3.65924203110985
C         1.30331717141226    1.83651881044178    2.82176684471674
C         2.59751466737002    1.96668472330013    1.99990506532070
C         2.70528368593043    1.09993602937759    0.72067370278461
C         3.88218809608910    1.74794519141525    2.84400211722660
N         3.68765098779204    1.59199239580561    4.19694820180021
N         4.98024604504219    1.74971263284368    2.16693068640754
C         6.23486150225771    1.40994225368609    2.85465941629280
C         7.18839796310804    0.74800214442946    1.84644314716313
N         7.28682145988016    1.33520251228235    0.50831001196531
H         4.14725010856664   -2.01458235706379    0.05032566849549
H         4.86254587945026   -0.44540564420437    0.23276911627436
H         3.54321528490234   -0.83295637916987   -1.02820020271188
H         3.05416443529747   -0.70254692781999    2.01630893591365
H         1.52041085860666   -2.03371486097874    1.04050589937300
H         1.33794166846062   -0.99709830571693   -0.49337934744568
H        -0.68414187339966   -1.83879824576574    2.28646924139682
H        -1.15439394545827   -0.16481276561717    2.34088374141249
H        -0.13495504704170   -2.02957887774615    4.47387496838815
H         1.22980044429114    2.78297555432640    3.37670036073512
H         0.52226186513702    1.88992483085822    2.06154370680306
H         2.54357275300810    2.93656855796820    1.47361481988292
H         3.56567991777678    1.48122382178478    0.15378818972301
H         1.85907358536656    1.33812820740492    0.05962391420709
H         2.91481452709826    1.08600691499376    4.62808522344516
H         4.53434996750462    1.44775940287575    4.73337823895056
H         5.97490891366991    0.63386517457684    3.58456699290537
H         6.67085541402391    2.32359154171340    3.27678689446459
H         6.85859972036544   -0.28489516410482    1.68844692955929
H         8.14404883092297    0.72355483228358    2.37995627173686
H         7.37637379864372    2.35077445867801    0.59178977930833
H         6.42117480665161    1.12528430742244    0.01738491088092
