39
 energy: -54.525842372837 gnorm: 0.107007483011 xtb: 6.4.1 (79825abcba525fcdf90b791dcacef51065a7a4e7)
C         3.63130564059305   -0.82398913214234   -0.40658847965595
C         2.56417138760760   -0.17716658180339    0.48244764894944
C         1.22395649325420   -0.88357381232817    0.22726575494434
O         0.18221766616181   -0.47520496481096    1.10853394042829
C         0.35033185076529   -0.92803258345314    2.43673589902578
C         1.34519633855922   -0.26198726193725    3.36867628817484
N         2.08230168354250   -0.93553623781581    4.19152544137561
O         1.31561379147676    1.04988613983439    3.61747431969049
C         1.05496941270156    1.97064279699010    2.54101251522664
C         2.33266385733086    2.15004029838517    1.70276402946851
C         2.37574547133287    1.35369782315961    0.37487739037851
C         3.68264095478971    2.06641361634157    2.46519501138478
N         3.87840655877691    2.67351342304435    3.68410218503862
N         4.64397821527769    1.56808977715771    1.76400736732939
C         5.98826527345926    1.35679583763861    2.32143164299501
C         6.14761116141970   -0.03229384714923    2.96091210855105
N         7.58107608274957   -0.18403735990621    3.22022653261433
H         3.60342172323757   -1.89458461820695   -0.18026626725628
H         4.60619677991399   -0.40787430530915   -0.13014940566189
H         3.43748732396484   -0.81500548038173   -1.47723808843944
H         3.00638770300461   -0.38335335110143    1.47099671444188
H         1.40474452265266   -1.94667572870006    0.36928041731122
H         0.78885915541681   -0.74918637211636   -0.77115342053891
H         0.56457337868810   -2.00322244825468    2.46395919871741
H        -0.63283800534336   -0.79447203518376    2.88891958922812
H         1.89027888646457   -1.94883482460797    4.19725974726552
H         0.88183550238444    2.84895521881459    3.17954851685576
H         0.14394315056259    1.68962753220568    2.01006960478712
H         2.24588931673225    3.22324604806651    1.45524553592774
H         3.24232525978949    1.71518418691509   -0.19555078762723
H         1.40046245999200    1.40019343230988   -0.13153653797319
H         3.01212687878518    2.98762631370320    4.12007150351241
H         4.44920813125719    2.16516183628304    4.34834892256583
H         6.20169686488795    2.12017727733298    3.07927844721197
H         6.74794243427876    1.52191582037665    1.54769827826529
H         5.62806368306800   -0.73428400039886    2.29918196950621
H         5.61284180964760   -0.02129555839330    3.91611014222115
H         8.05390647978482   -0.23896987141261    2.31480469370999
H         7.86373878649854   -1.08009279513832    3.60958971584518
