39
 energy: -54.528160235709 gnorm: 0.105643762876 xtb: 6.4.1 (79825abcba525fcdf90b791dcacef51065a7a4e7)
C         3.56090126791223   -0.75691721988639   -0.31451771168169
C         2.50977970227513   -0.15614960493014    0.62450406314668
C         1.18627272080994   -0.92442306764347    0.48889401729234
O        -0.00687170261704   -0.40042858616560    1.06374588687184
C        -0.13221282948478   -0.67944684998979    2.44355532229661
C         1.08676905871417   -0.55487612030171    3.33823397032366
N         1.62126460434333   -1.46192370947760    4.09033264242501
O         1.66243864657724    0.63074081852198    3.55434597746080
C         1.42034463291610    1.85819057441967    2.84072429641704
C         2.51866941041197    2.16052641960540    1.80649858649302
C         2.37145634459920    1.37687909636889    0.47852061079879
C         3.96938185489974    1.90328426814201    2.29638888730998
N         4.28138883417385    2.18459856698387    3.60640529120499
N         4.78338253065391    1.53788527142765    1.36469871655882
C         6.22270638580540    1.39878596257247    1.63204283512962
C         6.44322621392148    0.21359384001923    2.58628974906115
N         6.97173665891864    0.72485886901219    3.85292960516987
H         3.58079334867265   -1.84298009449361   -0.17944111739661
H         4.50868729021769   -0.25044530901874   -0.10198370330474
H         3.28478519072804   -0.51641182088475   -1.33914149669189
H         2.91830908598575   -0.40929745658466    1.61663178617958
H         1.29781554482197   -1.92766550723580    0.89398778657449
H         0.94384680392829   -0.99911693948572   -0.57874872680064
H        -0.45683541903348   -1.70692383053676    2.64747936458330
H        -0.92150860891744   -0.02271934920523    2.81050576640751
H         1.12843749530648   -2.36636651567469    4.14309921127849
H         1.41545649632286    2.74542653051295    3.49028164648506
H         0.41767757727651    1.88090696723309    2.41062948337315
H         2.44122244947257    3.25495539008183    1.67691078706621
H         2.99228245214473    1.79468310469113   -0.32586485498196
H         1.36023441774679    1.58133388891932    0.09717782262241
H         3.59708580501918    1.74906883156816    4.22383533498613
H         5.23602028113360    2.01316092715829    3.89751942642802
H         6.63826510800979    2.31579700028315    2.06682755415664
H         6.61532632907325    1.12855181134982    0.64418636469903
H         7.17597969018944   -0.44284532469152    2.10383094111937
H         5.48415423508340   -0.30545344396964    2.68258804766039
H         7.93799405226245    0.40066267953671    3.94021277769670
H         6.39244705687319    0.28887364362155    4.56620211719234
