39
 energy: -54.518965640383 gnorm: 0.109209159838 xtb: 6.4.1 (79825abcba525fcdf90b791dcacef51065a7a4e7)
C         3.26640795306382   -1.99955514531666    0.52030808438921
C         2.31829850965447   -0.88827459108070    0.98256795761369
C         0.88307974977581   -1.40656389542535    0.80416318681037
O        -0.08706292192919   -0.48943150186437    1.30045936140684
C        -0.15162731053556   -0.54743116491650    2.71109863719541
C         1.00110936181895    0.11804491664478    3.43926370984266
N         1.65598400862823   -0.39005506991420    4.43276602396687
O         1.18587909573220    1.43736700515862    3.34420169722108
C         1.38299047177822    2.04799249124479    2.05471267757995
C         2.62353932319823    1.61714037248110    1.25299448278934
C         2.48109131178361    0.45651503321103    0.23714129670168
C         3.89420020151180    1.30486296160652    2.08883917009398
N         3.96311015132622    1.82109336185672    3.36217598168127
N         4.91563711555645    0.80186171483356    1.48236044264904
C         6.23374182855882    0.69788097850283    2.12599279003468
C         7.23495009223524    1.86443958762079    2.10110244917720
N         7.46004587844029    2.57603632245594    3.36128247783068
H         3.02437729148540   -2.97913715478735    0.94458888280263
H         4.31116881401527   -1.85779036522048    0.81756275041355
H         3.39224218305610   -2.07654998943913   -0.55773383317064
H         2.44779763852732   -0.79917156473405    2.07370870977724
H         0.75807946833495   -2.36994007043220    1.29336604660705
H         0.64124033903078   -1.61835694966473   -0.24505935168006
H        -0.12149854873638   -1.58512586294213    3.06458946359338
H        -1.06671041008717   -0.03946098788904    3.01691017438177
H         1.26915400006753   -1.29788568974312    4.73257558878982
H         1.64015362829989    3.09611953216294    2.26550430248640
H         0.42421893067372    1.99333427135941    1.53643822480356
H         3.05668495095110    2.46991702394703    0.70007256385429
H         3.42662589285892    0.39098652651303   -0.31845892361726
H         1.61078920259125    0.58024740809677   -0.42396262750289
H         3.17385280388354    1.88564702474756    4.00411234004754
H         4.88392198037837    1.67718721053339    3.75822660727061
H         6.74833239700556   -0.11932583516467    1.60637214769762
H         6.11734197728990    0.28723948057727    3.13636991810685
H         7.00167464311896    2.52726756862590    1.26035982581717
H         8.18088542343683    1.42030014971534    1.77483720640691
H         7.36284096251635    1.97839832106433    4.18575497115486
H         6.72065443658415    3.27363917376195    3.32860538795725
