39
 energy: -54.519165601124 gnorm: 0.107941760391 xtb: 6.4.1 (79825abcba525fcdf90b791dcacef51065a7a4e7)
C         2.43477148677302   -2.86329477504220    1.23550243859815
C         2.02586162149561   -1.40674018707405    1.47795163799210
C         0.54221870084980   -1.34385676366418    1.08405533639713
O        -0.03046718709616   -0.05113070864784    0.91227427083634
C        -0.51460769672713    0.54180108613346    2.10032963277011
C         0.48966500147205    0.39469556880891    3.22801795304566
N         0.44303007030097   -0.39012921402943    4.25561149791184
O         1.51242011042162    1.25329904058976    3.25167150329158
C         2.01559117871329    1.79136211371111    2.01401026870262
C         3.13776787014697    1.00790998584998    1.31096736280795
C         2.78151559720896   -0.34493174124703    0.64598325163029
C         4.42450615224565    1.02608367223162    2.17970605033761
N         4.26043099914414    0.83404129110871    3.53204776328994
N         5.47612178390809    1.31465104463061    1.49050831468365
C         6.78823686574213    1.20283270501325    2.14497399217827
C         7.23700625474432    2.47616455853073    2.88058839691207
N         7.68832694195203    3.52764917634522    1.96637754734146
H         1.70730852763498   -3.60751135880791    1.57478589656148
H         3.39943884540859   -2.93695792098490    1.74928592849159
H         2.57798073024387   -3.08831661484406    0.18061234151505
H         2.13172066494322   -1.19927376560148    2.55547149819437
H        -0.06948877391240   -1.95193630401934    1.74669505471323
H         0.47546806993020   -1.81442741541151    0.09495567160540
H        -1.46604476143409    0.06227184927502    2.36012381438394
H        -0.76319242618602    1.59639942343515    1.97802078119663
H        -0.33872993068732   -1.06283217708053    4.25431187548452
H         2.55746436081243    2.66285413666338    2.40899306444873
H         1.23867017222922    1.99161049205385    1.27432577619043
H         3.34405288839784    1.58744921336081    0.39328191588620
H         3.66865272891566   -0.67396883375320    0.08764328384025
H         2.10637522841974    0.15281748615945   -0.06551170109048
H         3.33216606731770    0.54563925976525    3.83917170500376
H         5.06177498909092    0.86538977392467    4.15037176613843
H         7.48297737235987    0.77092280835315    1.41461413877085
H         6.65766403618858    0.42428465578571    2.90645346716412
H         8.03631662180191    2.22215388633254    3.58570402450702
H         6.35155214367943    2.86689397958206    3.39225629803477
H         7.14868210314828    3.46059565174633    1.09996993918505
H         8.68999938031354    3.62649937598801    1.82043852282206
