39
 energy: -54.529300473070 gnorm: 0.100681771297 xtb: 6.4.1 (79825abcba525fcdf90b791dcacef51065a7a4e7)
C         3.24167626717682   -2.27037351701688    0.61612442759712
C         2.34016450403752   -1.15673272072974    1.15891435395035
C         0.88355480413908   -1.32322893198760    0.69970617786241
O         0.12926379907748   -0.11805487065518    0.78467138138668
C        -0.64108579503187    0.00639012567804    1.96302219368993
C         0.03344928116882    0.18563376861832    3.31015202728736
N        -0.61463374744134   -0.05195991110928    4.40450612608787
O         1.24336982617775    0.70973333590590    3.52275341368756
C         1.77195715245333    1.67077161501344    2.58921219490119
C         3.07290859925721    1.30853332994446    1.85188196079186
C         2.86881022792449    0.23789034874570    0.75126041716055
C         4.31438595530639    1.19772018907699    2.77772592655163
N         4.20528695293701    0.86169620473800    4.10731773120894
N         5.43149335412443    1.48536737593569    2.20023976345454
C         6.71752740178174    1.56839108529524    2.90854630140919
C         7.66990282978893    2.41206696052974    2.04536115441282
N         7.79793884469152    2.05127333710467    0.63166865410794
H         2.86019496949828   -3.21524696267808    1.01594957166977
H         4.28643320768537   -2.15385983787001    0.92416719513661
H         3.19886584893952   -2.20181289599233   -0.46895785008066
H         2.39158719932372   -1.27527484847128    2.25372072394509
H         0.36852608241441   -2.06880273913786    1.30129015306812
H         0.92509624044879   -1.64025943076868   -0.35004451022530
H        -1.20358990551665   -0.93193483590706    2.03924024584608
H        -1.41426091755375    0.76579402175716    1.84286632759853
H        -1.55354785480675   -0.37184106797250    4.12202424399917
H         1.87880787375669    2.55576227067354    3.23303729149735
H         0.98305646548895    1.88227218422403    1.86551195366813
H         3.16023844483988    2.22316014168226    1.23836984574135
H         3.87056768625405    0.14082689963792    0.31071312227377
H         2.14818926150380    0.64590441354232    0.02736552191648
H         3.28025169037503    0.98891014100051    4.51634465335996
H         4.92600852675786    1.31541950447792    4.65518184928989
H         7.15040161197698    0.57298665140618    3.06483443350185
H         6.64369418272523    2.05296175689777    3.88975842935641
H         8.65986747157256    2.23537914814025    2.48051395715642
H         7.33396747306800    3.45387970254876    2.06197900126754
H         6.89214178494306    2.14803970182716    0.16632702829076
H         7.91611500809981    1.04241585269711    0.58011085502105
