39
 energy: -54.520906534427 gnorm: 0.101477312727 xtb: 6.4.1 (79825abcba525fcdf90b791dcacef51065a7a4e7)
C         3.54730202633553   -0.79429253560581   -0.28874891098467
C         2.52665034791763   -0.26237631306655    0.72262415221837
C         1.13735364827037   -0.89310881301788    0.54280155941421
O         0.15192359518086   -0.02881645966365    1.10006708889787
C        -0.20182047113918   -0.48047433437229    2.39169629024804
C         0.96488926503549   -0.49460952625512    3.36147627665612
N         1.32849851630776   -1.52675886981929    4.05178729158918
O         1.66738667294893    0.62012001688480    3.57979453367034
C         1.50663304629006    1.84817654765455    2.84458451411715
C         2.62448323391191    2.09507950132048    1.81657817867772
C         2.33451544196278    1.26133925036132    0.54374817281489
C         4.02111666493020    1.69275878369109    2.36273359230941
N         4.11427687406977    1.65492639618234    3.73478276398004
N         4.87149519259139    1.58235501975587    1.39897665165760
C         6.31774136876941    1.31988570707624    1.44320873765413
C         6.81680432348394    0.32144700348973    2.50054162287001
N         6.72491426521058    0.93287557335232    3.82824756114562
H         3.61730603805526   -1.87425296412445   -0.12455735813884
H         4.50537572985382   -0.26324387841399   -0.29680813334235
H         3.18493753908598   -0.54382368690425   -1.28368316749757
H         2.75581049720088   -0.55821532592951    1.75957276513620
H         1.06110891959707   -1.82126027078735    1.10472662719068
H         0.88195372184285   -0.92683083114535   -0.52389626232055
H        -0.57953482236388   -1.50030880132612    2.25047545758717
H        -0.99120314396699    0.18635725407284    2.73975103585017
H         0.61885685502954   -2.27392738679618    4.00903701572604
H         1.49611209395980    2.61726688127515    3.63041252608572
H         0.50214134997653    1.86632278104358    2.41854933916062
H         2.55720468311998    3.16205762317175    1.53801563898557
H         2.99808840962553    1.70349964639294   -0.21202054021849
H         1.35639570196607    1.37178024204419    0.05295449748102
H         3.44878876046582    1.10726979579171    4.27918559933093
H         5.06242909269840    1.68286070966638    4.08930574634422
H         6.75016312816130    2.28793020359045    1.72345383808426
H         6.53793814916908    1.00635140968617    0.41546998996552
H         7.87458976296427    0.13818590119060    2.28119746075866
H         6.24387609952325   -0.61142422001418    2.49789060045545
H         7.28982747966511    1.78527190605004    3.85410142265036
H         7.01115657656142    0.25253447914746    4.52797505756275
