39
 energy: -54.525676091829 gnorm: 0.113187876409 xtb: 6.4.1 (79825abcba525fcdf90b791dcacef51065a7a4e7)
C         3.16247016976244   -2.10317736989496    0.57305642521426
C         2.31966150901193   -0.92288223592426    1.06713852914747
C         0.82984675003658   -1.26170498343687    0.90602969070243
O        -0.09095149287307   -0.21321604537585    1.19137166225440
C        -0.41686337294142    0.02607506571569    2.54560829516064
C         0.59043087025896    0.24268299362242    3.65930658585770
N         0.73226787251863   -0.50697946368742    4.70427628895443
O         1.45267519078690    1.25980065304811    3.58318969949827
C         1.73439589131947    1.91505152449749    2.33187917059961
C         2.98035211961694    1.52114248463238    1.51961330973115
C         2.69961434754731    0.44090290210544    0.44556998228730
C         4.14162429765577    1.02928707318154    2.42529415804399
N         3.90092320261033    0.07503858894644    3.38659633047628
N         5.28930750112319    1.36030116194365    1.93804368054454
C         6.58745690695736    1.01731783207247    2.53774793609682
C         7.65718386270240    1.96978593044292    1.97883355423427
N         7.14642292787595    3.16442028138423    1.30276863526220
H         2.73038747866828   -2.93482177986868    1.13860578405322
H         4.21632285394706   -1.96696910744282    0.83918547945269
H         2.96929814404190   -2.26037770151745   -0.48614584957678
H         2.53722599694051   -0.91447177813710    2.14782926543441
H         0.60942259493532   -2.14489243741905    1.50137099236680
H         0.56893334243982   -1.50528938748761   -0.13166070515673
H        -1.03441042078830   -0.82204011174688    2.86499844748465
H        -1.07968960539716    0.88664288119089    2.64056030383947
H        -0.00848136981722   -1.22454235092515    4.71286250290098
H         1.74188846569546    3.00302112212979    2.49126014577461
H         0.92482127790010    1.84949736807911    1.60309222951259
H         3.39339507167587    2.42052584453014    1.02862360808277
H         3.63954034644016    0.33858287959195   -0.11397533428596
H         1.92249184773683    0.92282109354428   -0.16568229511443
H         3.02077426756704    0.04878842227599    3.90023571058422
H         4.67758764692456    0.06025598281195    4.03623724901612
H         6.88222558230506   -0.03555222653083    2.45282382094187
H         6.52468620466197    1.11161891520630    3.62871285698732
H         8.31174769232319    1.39667650209960    1.31272672436805
H         8.24061574142207    2.29977184141619    2.84440795593204
H         6.67697109279256    3.68712902290381    2.04625059019369
H         6.37035178172661    2.90440307144069    0.69901217628300
