39
 energy: -54.517824889025 gnorm: 0.108908151786 xtb: 6.4.1 (79825abcba525fcdf90b791dcacef51065a7a4e7)
C         2.23104457769520    0.04207985968001   -1.43277515818376
C         2.91566337544332    0.44237165349031   -0.12181987278059
C         2.65830994272681   -0.69649615141128    0.87670618014305
O         1.26079430376212   -0.76604959064448    1.14265895109297
C         1.00995376714728   -1.30193612697017    2.42614651020539
C         1.29443114897297   -0.50903195020949    3.68799443066762
N         1.26046055531206   -1.06079021281087    4.85781580449697
O         1.61284886858495    0.78791757424361    3.70586822357350
C         1.25098620792534    1.77923455074769    2.72564152627364
C         2.39586080997772    2.26172300043975    1.81799945189650
C         2.25903335335988    1.75660082480217    0.36011395379635
C         3.76886940897208    1.92918661286078    2.46220402919621
N         3.82401880787204    2.25210486585450    3.79835948529792
N         4.75798829079502    1.50872428294203    1.74875091668224
C         6.08330971246197    1.40993802293112    2.37822613374448
C         6.25785632645819    0.23197226457183    3.35076233872895
N         6.22751453208412   -1.10392711195501    2.75114248423766
H         2.93961985126187   -0.60697645797077   -1.95700881891446
H         1.95771821670869    0.92357153336256   -2.02290054847975
H         1.29989473342345   -0.46933325280257   -1.19750205290129
H         3.99206002025146    0.66493734957339   -0.20627272395929
H         3.25055884482578   -0.41014531038729    1.74289472566409
H         2.94944348701929   -1.68451679586683    0.49819991174547
H         1.63979209927970   -2.19660249722196    2.50064178803998
H        -0.01430777041158   -1.67564653243600    2.43880754423699
H         1.09336522104987   -2.05982745962702    4.66369369420273
H         0.76129346011939    2.55274798982159    3.33475091822144
H         0.46361682060261    1.31776554812932    2.12736515030018
H         2.41192188707682    3.36445515404118    1.75250415980468
H         2.49912684921522    2.59497334032889   -0.30809848411279
H         1.17428310138611    1.58314319955642    0.30513020073678
H         2.92789626189324    2.42754824899675    4.25152682343867
H         4.57979939214193    1.79153762851811    4.29042963652893
H         6.43218830271072    2.39957714220094    2.69687042431520
H         6.74204763693562    1.18737848091675    1.52995205309977
H         5.43674888934692    0.14612390071832    4.07119218617831
H         7.23660440984233    0.17031951414294    3.83733569181628
H         6.69241944904318   -1.03813033079578    1.84234708789189
H         5.30351943158997   -1.44368429020625    2.49576952497826
