39
 energy: -54.522795047065 gnorm: 0.112598273727 xtb: 6.4.1 (79825abcba525fcdf90b791dcacef51065a7a4e7)
C         3.17470288934222   -0.99620479400035   -0.64086340393819
C         2.40100168639137   -0.29056628195648    0.47761810711066
C         0.94655247028394   -0.78171398116579    0.41715039507145
O         0.02667871412501   -0.14205382899630    1.29651702539925
C         0.07480027034846   -0.64800627330799    2.61527861031586
C         1.40214452759316   -0.55051196015340    3.34365811221847
N         1.90450809196660   -1.48938916700407    4.07865041504635
O         2.07056301285207    0.59866092640871    3.47174333871657
C         1.57769248497307    1.75025786529459    2.76082739677058
C         2.61389033919860    2.09675794567996    1.67750897192196
C         2.35000537540076    1.25307485217716    0.40555620058106
C         4.05254098960366    1.98849415100256    2.25135202784667
N         4.21688904139040    2.41704806738080    3.54825615362581
N         4.99168559554621    1.84321801476640    1.37896315515630
C         6.32934268643459    1.58646896273953    1.93324475499097
C         6.43165889649932    0.24295253258542    2.67377937707503
N         6.33313269703109    0.34883951942689    4.13123341643975
H         3.28273858549014   -2.03195066319184   -0.30362056884321
H         4.19356128277595   -0.60903781650599   -0.75046333932560
H         2.70390786552563   -0.86735616675583   -1.61332775151673
H         2.89186666260920   -0.62380925386003    1.40675652323613
H         0.98103492035415   -1.83101536404727    0.70143146308013
H         0.50243624120264   -0.75317697642942   -0.58592335081734
H        -0.27780379607538   -1.68345877935112    2.69390600745564
H        -0.63882405441614   -0.05211913186369    3.18500688869820
H         1.38835957888077   -2.34418482444985    4.33671001438773
H         1.25451242969396    2.50312598536805    3.49423078167061
H         0.68582567791481    1.46490856142189    2.20048089817613
H         2.37942077552266    3.09109909051159    1.25694327935813
H         3.14799193047091    1.57164291265871   -0.27909924261242
H         1.39857093690940    1.54256672839172   -0.06429570573169
H         3.42077106456769    2.35467122780660    4.18188217246403
H         5.08768312736773    2.15406993948928    3.99325015841442
H         6.58225346486245    2.42702185601726    2.59062061417680
H         6.92960910804613    1.51976408244243    1.01767498399507
H         7.30124990074073   -0.28089033750513    2.26146073014608
H         5.58623662124763   -0.33271530865969    2.28343309653870
H         7.10925790980330    0.93572030406016    4.44678922739856
H         6.46034535580770   -0.60125414269570    4.47116901104588
