39
 energy: -54.521633309370 gnorm: 0.111973053168 xtb: 6.4.1 (79825abcba525fcdf90b791dcacef51065a7a4e7)
C         2.68696501200968   -0.40723612379955   -1.19063392076088
C         2.18475316249432   -0.06560278918360    0.21599684633033
C         0.75349917779350   -0.62389706066077    0.22715468249705
O         0.01466281533370   -0.36891159249981    1.41783590184432
C         0.36943587514466   -1.10936394835219    2.56818458005827
C         1.69625418205881   -0.67173313029207    3.15972248650361
N         2.47633265094464   -1.54878946500998    3.70407809872814
O         2.03856677659544    0.58993247301715    3.43323561220413
C         1.55562884125941    1.74239816038181    2.71693110377760
C         2.63878442826622    2.12759379978509    1.69431414589812
C         2.27606948091138    1.47302321614817    0.33811520626159
C         4.05405122010220    1.85492296513921    2.27172488951356
N         4.26930503982575    2.75861924199004    3.28643070971994
N         4.69344663789109    0.81166209774434    1.86314155417444
C         6.04562465226610    0.37563793359880    2.24257819941433
C         6.39429536936698    0.10293120788628    3.71497633725099
N         6.75359857509270    1.37280593752302    4.35012286437431
H         2.68438006813177   -1.47391093204345   -1.43634131861236
H         3.71146482864619   -0.04567629846614   -1.33083901565142
H         2.13168444980015   -0.00242350045397   -2.03427310683625
H         2.71635254635284   -0.58846864827768    1.02797646823313
H         0.75870390919784   -1.68075221255462   -0.02988279199232
H         0.18299446136047   -0.01336220995006   -0.48416950757212
H         0.22876759424698   -2.18015554380409    2.37768106623621
H        -0.41578721727973   -0.79453250533289    3.25610706257032
H         2.17702566739458   -2.52688924065689    3.57210906253043
H         1.43716809634680    2.54430671132688    3.45992910522830
H         0.61060780292498    1.54331154523256    2.20885769828393
H         2.66830815323470    3.21448068279523    1.49842879138188
H         3.12587015417600    1.68270091093627   -0.32588428645297
H         1.33485327186251    1.96266412192223    0.04801572630093
H         3.40016838710247    3.19739148628629    3.58851850980791
H         5.00809217462774    2.68572338712877    3.97515362868572
H         6.69537860496095    1.13022050564656    1.78316445995843
H         6.25764140894963   -0.54068966800506    1.67828223984797
H         7.16328431594179   -0.67357063499000    3.79439556767584
H         5.60888312922727   -0.40310996482793    4.28554836706315
H         7.62620110158211    1.74108688665115    3.96371784021748
H         6.91990723303847    1.31536589156896    5.35185102333132
