39
 energy: -54.526606130465 gnorm: 0.101204576936 xtb: 6.4.1 (79825abcba525fcdf90b791dcacef51065a7a4e7)
C         3.30817079752321   -1.65224048431981   -0.00258058246417
C         2.39828805085739   -0.71333153755122    0.79623325762093
C         0.90937416273006   -1.04119112020002    0.60663243646669
O         0.00233751630286   -0.14013117994075    1.23432186480672
C        -0.35240613451455   -0.47735693346359    2.56016929122157
C         0.70051583586796   -0.33614407532957    3.64335848909317
N         0.83337711153685   -1.14712788724723    4.64272146691319
O         1.67410274511176    0.56578903631031    3.49358337140498
C         1.56743961212367    1.67310680390341    2.57872345925358
C         2.74408070552269    1.71236495842609    1.58810666421064
C         2.64423755173283    0.75397076125584    0.37533619529983
C         4.09339194219949    1.63955025529454    2.35282216604295
N         4.25614433098875    0.62617288225094    3.26890459438149
N         5.00369299090951    2.54114945210266    2.20238622579927
C         6.20635032807072    2.52350784844397    3.04842330964412
C         7.21279927093861    1.41123021480240    2.71108740317384
N         7.46953024449506    1.24522362813861    1.27873871656174
H         3.16235745506080   -2.68942150373670    0.31548851782677
H         4.34890069732633   -1.35945838767450    0.17389255009866
H         3.15394143599962   -1.58989445531927   -1.07787733786312
H         2.64944521986427   -0.93428485017550    1.84666041930290
H         0.63648138023045   -2.02858104083576    0.97218521338363
H         0.56017212162460   -0.85534724438524   -0.41695464831871
H        -0.75950337286180   -1.49203790554309    2.64600717154275
H        -1.20435911569633    0.18999372522094    2.69340097277825
H         0.07219193173021   -1.84296450800384    4.63333102567420
H         1.38122472045124    2.59703226815732    3.14513499604106
H         0.72299327734499    1.52327079196858    1.90396544574397
H         2.72404635934891    2.72693920609027    1.15129603342179
H         3.56467890948449    0.87671533565619   -0.21181174663325
H         1.78934515686113    1.07692559658514   -0.23675287776836
H         3.45255284915172    0.05663602400929    3.53166900230483
H         4.93463382864350    0.55545093795578    4.01730949784571
H         6.04618403667046    2.43929902576638    4.13003861709418
H         6.76015938420080    3.46347762430309    2.93533189548630
H         7.03369427082254    0.41908891078150    3.14025352730853
H         8.15756055637625    1.75276993930527    3.14614973739413
H         7.37379698593992    2.18447786106972    0.88502371802194
H         6.85166547022907    0.57015882843737    0.83495062336003
