39
 energy: -54.525120394976 gnorm: 0.107212013196 xtb: 6.4.1 (79825abcba525fcdf90b791dcacef51065a7a4e7)
C         3.84105624763130   -0.67389089115495   -0.17922641112123
C         2.72032187511077   -0.23200736365443    0.76746973079148
C         1.46958901752334   -1.11544150149902    0.64290498048652
O         0.32199650808698   -0.62985061898528    1.33272483539161
C         0.06614815520679   -0.92411270334045    2.69117509821310
C         1.06886363280508   -0.30642931120708    3.64768620859150
N         1.78154535161379   -0.99006952028751    4.48362523941976
O         1.12480705108294    1.02621508604790    3.71636404495390
C         1.11310325316695    1.84727974577853    2.53305759482078
C         2.43693213080637    2.06683247822629    1.78031541921225
C         2.41129903677576    1.25208730349001    0.46318461812320
C         3.68205956824333    1.94915932744778    2.70039327927090
N         3.58773794650554    2.29677413141592    4.02813437530923
N         4.69849160276299    1.48893584719766    2.05292100611106
C         5.92277678416372    1.20661195000765    2.81705035162362
C         6.77704036110003    0.10832192726129    2.16291787897208
N         7.37722237186867    0.55498734857561    0.90380577275952
H         4.14575033743236   -1.71420934387964   -0.02732849403493
H         4.67403769474723    0.00599196640607    0.03025880659956
H         3.53298316623442   -0.50424400934436   -1.20890973517670
H         3.04660320709101   -0.27890933898728    1.81943846036331
H         1.77327837809136   -2.10375612375187    0.98061067524218
H         1.13873615130786   -1.24229410555735   -0.39567834492332
H         0.02749623245165   -1.97724770957695    2.99463262522517
H        -0.85489911323216   -0.40855334362336    2.96467455009955
H         1.55413373029660   -1.99507344446106    4.43968517057994
H         0.89537267577419    2.82975572362102    2.97630768898034
H         0.37378665204124    1.46595196616720    1.82677231750556
H         2.28523834320848    3.10998451370044    1.44957592070006
H         3.15505010123172    1.72567118904131   -0.19223424578425
H         1.45030866504751    1.48047901096333   -0.02068374749260
H         2.65078460615712    2.07165658881616    4.36072597303655
H         4.37622300038200    1.90855486907992    4.53116183802290
H         5.61487516594470    0.79588672867447    3.78614138515207
H         6.50381084765016    2.11910703653001    2.99812892228486
H         6.12570633330194   -0.69369844222015    1.79804277096351
H         7.43582986036407   -0.33402757273981    2.91712330024147
H         8.03054112388090    1.34091776751443    0.94696657456132
H         6.57629194005751    0.80310738845291    0.32816341433367
