39
 energy: -54.510155173991 gnorm: 0.120822938602 xtb: 6.4.1 (79825abcba525fcdf90b791dcacef51065a7a4e7)
C         3.81641205813160   -0.35548535922181   -0.04429733095784
C         2.62430917383895   -0.00594401250304    0.85250351539688
C         1.46206995660565   -0.89122843452696    0.37734410271162
O         0.27583057263529   -0.58266089681362    1.10276861562823
C         0.30903567256700   -1.17302401390436    2.38643698353505
C         1.08249194828873   -0.67345605090443    3.59229013847439
N         1.19223904536862   -1.51738646366545    4.56687223628554
O         1.64038680328599    0.53168731072803    3.73431196029638
C         1.27451321051630    1.72835231681947    3.02113056889132
C         2.31608183318515    2.19152524709364    1.98771257503846
C         2.23229793134258    1.47134497154680    0.61890981860288
C         3.80768861108760    2.07914998953145    2.40390201672861
N         4.06372789315005    2.52567524038266    3.67971084235802
N         4.74146163969634    1.81067426561576    1.55528619227634
C         6.12303452318742    1.79099977502635    2.05861902730407
C         6.42458424611586    0.41852607129437    2.68254228274435
N         6.86198503859742   -0.71643679424468    1.86667980556170
H         4.29563943768970   -1.33048937466996    0.08942717509490
H         4.58296586151308    0.39640841486511    0.17257560648146
H         3.52489705084763   -0.19744562886314   -1.08062704974300
H         2.73864288740198   -0.18558675903270    1.93414754725470
H         1.82867858059893   -1.91084557362743    0.47230290790425
H         1.23700265706149   -0.75707052018379   -0.68828102043131
H         0.65617595980268   -2.20359929174728    2.24472598787820
H        -0.74345460594488   -1.22160662261124    2.66721343179384
H         0.89647143629152   -2.47153575974752    4.31035653655580
H         1.15446759742552    2.55381936782638    3.73760072547917
H         0.32624431994778    1.46294252622097    2.55083005547150
H         2.02045323525395    3.21482244050499    1.69439978621776
H         2.89402668338661    1.96434727354992   -0.10640737693374
H         1.18937711723532    1.54624965733361    0.27758981689979
H         3.29856350181778    2.96501474843806    4.19028002392950
H         4.92055779286728    2.45923197016282    4.21532946457728
H         6.43517172581393    2.68233991834327    2.61604091498207
H         6.59671756368000    1.92412290262048    1.07834358872523
H         5.53429319992512    0.19502923247143    3.28090467341231
H         7.21226884030542    0.63223669167619    3.41218826269026
H         7.85262518978894   -0.57190443736054    1.65663847742076
H         6.34320286955273   -0.79250965946551    0.99518957896927
