39
 energy: -54.524971605695 gnorm: 0.103821843610 xtb: 6.4.1 (79825abcba525fcdf90b791dcacef51065a7a4e7)
C         3.63506298628212   -1.12492086555571    0.07726345436160
C         2.54050966014582   -0.41809709752001    0.88342308686118
C         1.19431562047275   -0.93832427618906    0.35670661650101
O         0.16824895335726   -0.17327119028300    0.98160619949120
C        -0.24776560752653   -0.57823126770659    2.27016155021770
C         0.74360317965662   -0.56399718762475    3.41858216981591
N         1.18549329880575   -1.54247934709412    4.14064796816389
O         1.13481721888488    0.64096521891530    3.84143506556646
C         1.30272855490105    1.79715509201223    2.99909959084644
C         2.51600788567830    1.90857541712575    2.05947954980265
C         2.66701626607801    1.11593642720893    0.73727677083395
C         3.91469708011001    1.86603939381302    2.73222898595610
N         3.92921527473864    1.16479251474979    3.91572848702613
N         4.91588115781708    2.27685040312002    2.03007172844244
C         6.30189904891875    2.26551897478829    2.52129533130589
C         7.04619023871312    0.92222963568639    2.44712738669408
N         7.24561323031780    0.29767182232969    1.13745195333754
H         3.88174662909138   -2.16585017455035    0.30918435216451
H         4.61128406272298   -0.64370536236329    0.20138797161167
H         3.36578029881048   -1.01945318463794   -0.97168851823365
H         2.49888481828975   -0.65002187365130    1.96035195344925
H         1.13067292617420   -2.01903353869061    0.46185060019608
H         1.01174622616489   -0.62990506064948   -0.68048022165001
H        -0.82374582813776   -1.51026472589964    2.31742888643005
H        -1.03450918323653    0.10858290335151    2.58361380452736
H         0.88194135903060   -2.49128494376961    3.87362021770287
H         1.39862658886047    2.63426464940309    3.70563156856417
H         0.45461574277704    1.84720776818069    2.31423595796460
H         2.38120501060861    2.93400010510147    1.67102337797091
H         3.65250796038893    1.38015352899573    0.32982533245248
H         1.94318305177957    1.46558351173026   -0.01346036819428
H         3.05794874205058    0.88865890584334    4.36719441491555
H         4.73108595987758    0.87502694278146    4.46207892442424
H         6.33778455193939    2.51352248385439    3.58892941188630
H         6.83002343277206    3.04591130511543    1.95994895331686
H         6.56444403138967    0.19934194614565    3.11493013238495
H         8.02816333342614    1.12813023910529    2.88511857661075
H         8.06011863997421    0.61201324837116    0.60439916655741
H         6.39891529232514    0.43377095346900    0.59064589813855
