39
 energy: -54.521574259089 gnorm: 0.107297251819 xtb: 6.4.1 (79825abcba525fcdf90b791dcacef51065a7a4e7)
C         3.16811504792754   -0.95035595119832   -0.61632962469909
C         2.33499228782844   -0.32790315444142    0.50883665823518
C         0.87725505263821   -0.77826575728294    0.32861282876595
O        -0.12610108657255   -0.33156679131532    1.23545074718662
C         0.07885171876815   -0.86361822885225    2.52864497083535
C         1.24246624254116   -0.39973942593103    3.38462529773187
N         1.97373700379772   -1.13473725445088    4.15863725689656
O         1.37448057820323    0.90499157829307    3.63767990814543
C         1.32484738460176    1.92568550821611    2.62268297942628
C         2.54369103444757    1.99305946499010    1.68607847939885
C         2.43923526205024    1.20709477125385    0.35542120181058
C         3.93683063821446    1.87473337369371    2.36127739709235
N         4.08729926409317    2.23622609765426    3.68010690308254
N         4.90965037985032    1.60397848655018    1.55848624519822
C         6.30764635035620    1.53520624886767    2.00943224229650
C         6.71801069237726    0.21922222238235    2.69037546778103
N         7.22883503731954    0.53040740689558    4.02728010666101
H         3.02365002550946   -2.03472366534699   -0.65441466568995
H         4.23748603168571   -0.71564665015533   -0.57972238866199
H         2.71300156571946   -0.55289461651125   -1.52122356664680
H         2.70725296943286   -0.61041236741681    1.50728948322283
H         0.88314878178534   -1.86297574148199    0.40866079877148
H         0.44232789239185   -0.46095742525463   -0.62761116245774
H         0.29994220409105   -1.93426611304528    2.44200837118098
H        -0.75728294380516   -0.61376945418381    3.18239254715243
H         1.87118600901297   -2.15908478959292    4.09638708759705
H         1.36509388605751    2.84239680454681    3.22861771715673
H         0.41639187125667    2.05726575049904    2.03256940947844
H         2.43972426654330    3.02549388063394    1.30682144140230
H         3.37216212635944    1.43291589397328   -0.17906314786155
H         1.57472403430222    1.44701944056906   -0.28085731457991
H         3.15415700505063    2.31611473789670    4.08264879897582
H         4.74009387175475    1.65751351129204    4.19431546743129
H         6.48491112198033    2.38302918843999    2.68204618004026
H         6.85116864540804    1.62047275395787    1.06056425437615
H         7.39793688773816   -0.37034531242384    2.06530185332756
H         5.80414826097167   -0.38329272281372    2.67210794590098
H         8.24893562514308    0.52735207602975    3.95138328707347
H         7.00653284819055   -0.28335408299409    4.59542727980545
