39
 energy: -54.524514061805 gnorm: 0.111138472233 xtb: 6.4.1 (79825abcba525fcdf90b791dcacef51065a7a4e7)
C         3.98614043633097   -1.15757560741782    0.48767123465999
C         2.70425884224412   -0.48417129864563    0.98851698795033
C         1.40813193980071   -1.19073669512704    0.56292865995372
O         0.23442658706092   -0.46247159520011    0.91029626036309
C        -0.33065759362885   -0.62925280819180    2.19493614428121
C         0.39195816966887   -0.26115678183171    3.47720620277833
N         0.28595481726724   -0.90974393185903    4.59173359646542
O         1.21157905399093    0.79056442540404    3.55396308184260
C         1.28302176986146    1.84744817918712    2.57805779568303
C         2.59604498227201    1.95864063108466    1.78373188466279
C         2.59711431269660    0.99965457365090    0.56732521742342
C         3.89348515019187    1.94716392459097    2.63652159479402
N         3.91018544259263    2.78317049388778    3.72896995692185
N         4.97075769343976    1.31779441888285    2.30859135692239
C         6.27260057271532    1.11159069161646    2.96063425010194
C         7.39546625807268    1.14470106937519    1.91088525569404
N         7.36981202166098    0.01808710793113    0.97537758116720
H         3.98907994331116   -2.20658521222228    0.80031188500533
H         4.72154904270851   -0.53569464606109    1.00961099454092
H         4.22201836518993   -1.16494109933329   -0.57451717065093
H         2.74000167237174   -0.48096939530395    2.09033809832364
H         1.30623368936536   -2.20199847218570    0.95023287168772
H         1.36603580643170   -1.20125490298226   -0.53357844844407
H        -0.54291277231188   -1.70057273910133    2.29441058556516
H        -1.31552587063234   -0.16554766352763    2.25773359202458
H        -0.36451592916055   -1.70443973730345    4.49672800423519
H         1.15143808312837    2.77025271139421    3.16137065462564
H         0.44987269516789    1.72581856826825    1.88386203788352
H         2.56728977717037    3.00125184302435    1.41945051262759
H         3.56055075132125    1.21927635856759    0.08714004509441
H         1.76807661719403    1.15127192588814   -0.13942977906553
H         3.06860029653064    3.20616361690001    4.11882629487557
H         4.68517861024968    2.77222903546024    4.38067958575632
H         6.16397574826222    0.12468186717797    3.42630334449781
H         6.51258548224855    1.90351967564696    3.68056000165511
H         8.36485095182829    1.13336395301806    2.42154300431638
H         7.39376786714823    2.07315913598861    1.33082900297962
H         6.39462775411350   -0.05936427276241    0.67639296191227
H         7.42590781021080   -0.81061134598573    1.56234382726066
