39
 energy: -54.533123794652 gnorm: 0.095419185816 xtb: 6.4.1 (79825abcba525fcdf90b791dcacef51065a7a4e7)
C         3.63183586120816   -1.46890705479655    0.39729462217149
C         2.54222433112083   -0.62524562444128    1.06701269779332
C         1.16395146127396   -1.03470735219352    0.52570875761708
O         0.04547025889086   -0.27740771331286    0.97750028156154
C        -0.38436908431165   -0.62744508202775    2.27755707334264
C         0.45406687043023   -0.27435923947838    3.49173998949763
N         0.71970890394236   -1.09997639507210    4.45187740969510
O         1.00806931550280    0.93331985531764    3.62731249225866
C         1.32047660114046    1.87692622257498    2.58495601041731
C         2.74283167416830    1.72115059036170    2.01928198938235
C         2.79580561963325    0.86254257461767    0.73114908252225
C         4.00801406802320    1.47964708660580    2.88630113186418
N         3.88552249019626    1.72215066017947    4.23493633000101
N         5.08125770947508    1.23470244086917    2.21376094238960
C         6.43078868176791    1.25559231561406    2.79754550930041
C         7.57422144585624    1.15379556225133    1.77475742503590
N         7.28268785656082    1.85407148989342    0.52187533358350
H         3.54271846257245   -2.52210145249635    0.68192351349266
H         4.63269296709826   -1.03097199765212    0.47779797515338
H         3.37978140092724   -1.40971507461430   -0.65954108028462
H         2.58920708901777   -0.81221870120158    2.15243022727953
H         0.96008826348049   -2.06394702501703    0.81231591025935
H         1.10719841545192   -0.96184080972177   -0.56776282204803
H        -0.68267410310136   -1.68055607177962    2.34571239075410
H        -1.27937709912223   -0.01060124400863    2.36355597217554
H         0.22739264347516   -2.00594142621653    4.42881824571171
H         1.14291518440843    2.83143643816026    3.10121028661181
H         0.64321203782405    1.83038548234170    1.73056412845492
H         2.92921200324434    2.74651905929086    1.65261088095642
H         3.73789223249352    1.07449858111585    0.20715604068051
H         1.96333717300780    1.28662509394817    0.15068014641307
H         3.01236300011621    1.58055814460222    4.74161245915686
H         4.72698056330553    1.50290757997658    4.75391637651698
H         6.57159727844715    0.39206651587115    3.45870523204510
H         6.53384464291121    2.19917587698359    3.34715159647460
H         7.73822155781965    0.09794189634761    1.53209812889031
H         8.45354511916971    1.58269944012031    2.26601483838020
H         6.88708538484378    2.78571746698671    0.66989333502733
H         6.61982996147094    1.27310581890965    0.01441544748623
