39
 energy: -54.527255262535 gnorm: 0.105628699210 xtb: 6.4.1 (79825abcba525fcdf90b791dcacef51065a7a4e7)
C         2.78491790495642   -2.67604867621633    0.93783366858251
C         2.19265623991258   -1.31145895423630    1.30479577740391
C         0.69465476853836   -1.30315506201874    0.96387411301453
O         0.14189680677442    0.00700867050332    1.04479471942140
C        -0.43518213785245    0.32574139302091    2.29492471900109
C         0.47145255306016    0.68843568502331    3.45610988049797
N         0.48150655718378    0.34231600507321    4.70277475374361
O         1.47501902871935    1.50671541147274    3.12890962344271
C         2.01549691928692    1.93129998872634    1.86316482924088
C         3.19660662950758    1.11280774574816    1.31325814415844
C         2.94405907725430   -0.20170377146751    0.53378427671465
C         4.39176565850844    0.83050584115968    2.26332821639330
N         4.03440348081841    0.36196739694394    3.50646660886058
N         5.54149077116398    0.90582603639192    1.68313934333315
C         6.77531739620212    0.93247414825420    2.48278701084250
C         6.96978954102602    2.40330474636224    2.88619062119193
N         7.09661367186392    3.28074480649183    1.72038346442391
H         2.51928363366346   -3.51034394833470    1.59476881199666
H         3.87619364042321   -2.62603497310173    1.01906633682389
H         2.58019341051701   -2.90933000950971   -0.10504913323821
H         2.22210113593050   -1.24527402880627    2.40481853325406
H         0.15894778273459   -2.07942865758387    1.50558943363581
H         0.60092782195917   -1.56992491843064   -0.09643699085097
H        -1.09078498601848   -0.51757736912094    2.54326350540559
H        -1.07058627078821    1.17536918809753    2.04327880371173
H        -0.22341724504363   -0.35556371545093    4.98513265957925
H         2.30470252858651    2.96621810755466    2.09649052237322
H         1.22543685470508    1.89409849805301    1.11132711475199
H         3.56174378558237    1.76257675436069    0.49775774445920
H         3.95190065577052   -0.52596475776979    0.24030276799651
H         2.43465356127424   -0.00470240634128   -0.42093575913997
H         3.06195471627114    0.57485296486348    3.72601108803264
H         4.71192501020672    0.14383084787441    4.22677245924540
H         7.51856484521444    0.84842393820911    1.68081765613475
H         6.90091723561330    0.17826065496110    3.26918640103393
H         7.86903004850971    2.54670300082421    3.49562477329966
H         6.09363589330899    2.76652924400978    3.43293119580558
H         6.27006399662277    3.25443109984450    1.11830531784023
H         7.89469974354088    3.12044511403209    1.11064592541668
