39
 energy: -54.526989107352 gnorm: 0.111081777601 xtb: 6.4.1 (79825abcba525fcdf90b791dcacef51065a7a4e7)
C         3.41214126296315   -1.86999787055887    0.92871686259910
C         2.35288265055813   -0.81196416097744    1.25441003894130
C         1.04461799647696   -1.04474265738496    0.48333110934175
O         0.09985743758600   -0.02511543126108    0.79382478148513
C        -0.59292664290103   -0.23412248899441    2.00782722502976
C         0.17752493412274    0.00695097597567    3.29241763812575
N        -0.11508408666237   -0.62323286856268    4.38389439303644
O         1.11005617350781    0.94196131514802    3.49223888105483
C         1.54977473761929    1.92078448500149    2.53148340759835
C         2.92327491060741    1.65306286703200    1.89181985414740
C         2.96050945308903    0.54020530868616    0.81503670620006
C         4.15547581036715    1.47332033108381    2.81923893085754
N         3.98048310236110    1.16596812438070    4.14872800953685
N         5.26243056635587    1.55382697241063    2.16172092447993
C         6.56121015279556    1.46618777728164    2.84580103975018
C         7.55653410567490    2.03583330358250    1.82172548765242
N         7.69117768591991    1.16716077270030    0.65024314251504
H         2.99824850108370   -2.79755567005826    1.33676497841927
H         4.25959921119576   -1.57373473114395    1.55643178912114
H         3.68879362459169   -1.83764922540384   -0.12311671472443
H         2.20398135187403   -0.81792492809230    2.34669680779988
H         0.72686908612365   -2.03808111168346    0.79212312227773
H         1.26740298325483   -1.03215071167569   -0.59110773230712
H        -1.09126033466617   -1.20716752616807    2.09454899154449
H        -1.40573783703332    0.49267177793549    2.00154058473398
H        -0.90831078675158   -1.27524850714846    4.28721622321812
H         1.66197204666373    2.87687467868455    3.06293385733200
H         0.77796836774621    1.95536749479735    1.76079686771965
H         3.18990237380404    2.55797945232613    1.31684023332622
H         4.00781528962913    0.40305362174602    0.51277667087701
H         2.37509708883231    0.82301841376024   -0.07215153638758
H         3.04128520449966    0.83606326231650    4.36837938895646
H         4.61094187218749    0.43071052836683    4.44432487984315
H         6.96411089479293    0.47122503176651    3.07020284210503
H         6.48010625555477    2.07459120617744    3.75481409963269
H         8.56718359118302    2.07240036642333    2.24345644725943
H         7.38370075955378    3.05577775366655    1.46347354159900
H         6.75148758028719    0.89802196416825    0.34871092461821
H         8.32324419598648    0.38806679085045    0.81734110751742
