39
 energy: -54.525633548726 gnorm: 0.116201668915 xtb: 6.4.1 (79825abcba525fcdf90b791dcacef51065a7a4e7)
C         3.78464965506777   -1.55337506371783    0.59489273909857
C         2.61303869826394   -0.70824202198691    1.10540039982526
C         1.29092878939013   -1.33952479327610    0.64300188496855
O         0.16619578995674   -0.48869675857440    0.84221496383172
C        -0.32277468512678   -0.39134617985151    2.16466209992280
C         0.65564858827602   -0.30280982850003    3.32083416941978
N         0.83006957359693   -1.26112680066701    4.17246740145653
O         1.11229945988839    0.87386673931450    3.75751445384865
C         1.27209778952913    1.82983223707473    2.69210711742746
C         2.62023807459423    1.77733666217596    1.95243890393373
C         2.73256090507100    0.79426126685170    0.76069788898423
C         3.91986336883537    1.73369663664896    2.80085050290693
N         3.82115811992738    1.93550436490369    4.15811243940602
N         4.98409154424093    1.58542983749592    2.08699096625081
C         6.21003632178399    1.12937769810826    2.75896604563013
C         7.15881421787131    0.93101235461827    1.56549705401763
N         7.37160927255759    2.22314926304256    0.90960664996182
H         3.66914712713950   -2.57371695509956    0.97401744218404
H         4.77974878025323   -1.17611282951624    0.85457288688487
H         3.75127438996938   -1.64731439096071   -0.48861929498161
H         2.60364921840991   -0.75702119573379    2.20668598519121
H         1.17463896327582   -2.28467952635371    1.16854671244456
H         1.26709112773419   -1.43422509468673   -0.45000961973995
H        -0.87683510157186   -1.29789088072913    2.43644796876932
H        -0.97467610988359    0.47921105169095    2.24267568199663
H         0.44663664718380   -2.16960187504928    3.87025572525604
H         1.32555464493290    2.73176667534077    3.31883906335396
H         0.42142257790339    1.85059607289947    2.00890923040625
H         2.66911755241684    2.77258588258296    1.47530622679005
H         3.69145418661720    0.86166530671623    0.22871894622752
H         2.02398915555999    1.10300494380939   -0.02186027383766
H         3.02683803359394    1.55673833020185    4.67266906561303
H         4.71596571176101    1.94167186825358    4.63218082757048
H         6.05975496329874    0.23236278754643    3.37167789589142
H         6.64532956899647    1.85710335731532    3.45464734628342
H         6.80157718542570    0.19711661824043    0.83448044249298
H         8.14115110609978    0.53571014983062    1.84344113374351
H         7.46701688463253    2.95301478491651    1.61993655877531
H         6.61039734969340    2.59080056639354    0.34409257974761
