39
 energy: -54.512921318483 gnorm: 0.126615400745 xtb: 6.4.1 (79825abcba525fcdf90b791dcacef51065a7a4e7)
C         2.74533167257431   -2.56228052734124    1.08619892586079
C         2.07387735330628   -1.21834677737320    1.38708321102561
C         0.62638130432448   -1.42384011537354    0.91503169705335
O        -0.18271453182761   -0.25438443881414    0.99475540740097
C        -0.70076799448823    0.06666604477057    2.26989574635273
C         0.35173252958961    0.23333894166670    3.34987140134422
N         0.22327700484543   -0.32678393515981    4.50911028445601
O         1.44469842945940    0.99071780414247    3.22501061746389
C         1.73981037412102    1.78683107452262    2.06156275203135
C         3.03143076128798    1.31927891568960    1.36841134646317
C         2.71863168863239   -0.01919737264738    0.65431170089965
C         4.34829077053336    1.16704494160222    2.17676595010833
N         4.37857824053739    1.13390804668202    3.55176183686030
N         5.36395205102769    1.23000511680014    1.38390511991084
C         6.69352875360968    1.33744759944900    2.00290154252848
C         7.18218247578277    2.79509041166093    1.98311490519582
N         8.44647192213719    2.81503346136139    2.72221315208591
H         2.07179152213215   -3.31874798518152    1.50125868597084
H         3.72686327811646   -2.61508207926598    1.56971785123839
H         3.00859517700822   -2.79720984017505    0.05690918024657
H         1.98750901578771   -0.98587269430440    2.46123116403894
H         0.22130179489959   -2.23611612349344    1.51432831907794
H         0.63920700390333   -1.74367118403890   -0.13461306395013
H        -1.43747052753848   -0.66449177423009    2.62394575999386
H        -1.15601157182240    1.04557198428784    2.11683391276490
H        -0.64361345387515   -0.78524982137730    4.82846842881039
H         1.84560467363205    2.86149906129161    2.26900569107054
H         0.90976536715285    1.63016351031720    1.37067970559634
H         3.23169601784075    2.02231016095313    0.54003540150849
H         3.61530400904438   -0.38390107935521    0.13470493461181
H         2.01596213383957    0.13805017855713   -0.17714640288052
H         3.42862908813525    0.81352761608071    3.73650393377294
H         5.17834318649639    0.71852995148553    4.01360225661224
H         7.46026243888632    0.81951795040073    1.41425531149385
H         6.79081561647829    0.91470790893595    3.01030599969084
H         6.49883324472303    3.37918800922882    2.60958945517449
H         7.22052035539138    3.18752691143498    0.96182831128717
H         9.13665365423506    2.15114480163815    2.36266357844109
H         8.21167701688725    2.72962897995834    3.70811104915810
