39
 energy: -54.527829195168 gnorm: 0.097076903995 xtb: 6.4.1 (79825abcba525fcdf90b791dcacef51065a7a4e7)
C         3.03441076931854   -1.56949610651871   -0.24876248213544
C         2.22116508515879   -0.60955466184119    0.62569966849945
C         0.72139993769590   -0.91765460534714    0.49887744100023
O        -0.05031755710424    0.05504810827759    1.19667401256623
C        -0.28315517810159   -0.24042743369996    2.55899427945338
C         0.92485836924700   -0.22718233576499    3.47682455323789
N         1.31418865336769   -1.25776380964632    4.15535013359704
O         1.54220128301039    0.94697722416294    3.63182272532244
C         1.55613603605863    1.97571003438230    2.62384805326987
C         2.64262083778887    1.86819005416965    1.53971829715451
C         2.42471174871274    0.89845833391932    0.35167943946298
C         4.01575717288524    1.62137534923429    2.22112252808052
N         4.15735438302861    1.06080402475707    3.46945705353252
N         5.07352824522450    2.07015689622092    1.63471346407513
C         6.38955496820932    2.20182217500462    2.27752959065538
C         7.34472927396897    0.99779463153264    2.32061376249811
N         7.30305912484535    0.34641138181621    3.63174121740968
H         2.80624801181961   -2.60736654354211    0.01380305878775
H         4.10205526946512   -1.37715777283347   -0.09669659849157
H         2.87818467225995   -1.51982227762148   -1.32443099636389
H         2.56553972531496   -0.95033781028122    1.61593724956121
H         0.42568436134676   -1.81863642202673    1.03162712579609
H         0.39284580130404   -0.88273941815760   -0.54756588801373
H        -0.77028726568113   -1.22245624668257    2.52744251336492
H        -1.00436042584218    0.49625576863881    2.91408906794322
H         0.71140294879874   -2.08761967368987    4.04733025247546
H         1.73052815151933    2.85070953862852    3.26657625875298
H         0.58312400736586    2.11069561702806    2.14859517931957
H         2.67286624906778    2.89978127094518    1.14542071371488
H         3.31672489750947    1.07571615087645   -0.26469175246214
H         1.57135350685705    1.25334736601929   -0.24466555421158
H         3.43667993818485    0.82034874726048    4.14915274648315
H         5.08755681844929    0.71968766298650    3.67879543906129
H         6.22546228063936    2.57388272626357    3.29599931767891
H         6.79636522082072    3.08441243175961    1.76902474411899
H         8.30005100801703    1.35901701859686    1.92376958041157
H         6.97129851899653    0.27239719524150    1.59064764309549
H         7.77955535640273    0.90812924172064    4.34152939575913
H         7.89349528960566   -0.47935960723519    3.56925406091636
