39
 energy: -54.521338903695 gnorm: 0.120754843471 xtb: 6.4.1 (79825abcba525fcdf90b791dcacef51065a7a4e7)
C         3.44875620660548   -1.57711148321733   -0.16534920651492
C         2.54204812767706   -0.69135743098579    0.69538325819353
C         1.09641580301496   -1.19146867783712    0.55276194431105
O         0.12136210011064   -0.39081466607533    1.21370213339576
C        -0.23539948736870   -0.67484180012122    2.55141863356815
C         0.73388944569143   -0.18685196766068    3.61171552988987
N         0.60848949807216   -0.52089906248565    4.85540385174093
O         1.54460780950676    0.86425460229885    3.46441268018071
C         1.42765782350057    1.84412426863515    2.41528138936319
C         2.71040984457341    1.81751218762894    1.56605460585122
C         2.75446495213553    0.80954094172193    0.39074470151267
C         3.91695005861216    1.83751238271738    2.54308749557738
N         3.96105261110645    2.89103034587583    3.42670726241529
N         4.75922408192678    0.86337092328274    2.46704185075309
C         6.03607024175926    0.81100862031797    3.19463836507441
C         7.28429495821139    1.43050669765813    2.54498177446489
N         7.68300138611715    1.03037362778254    1.19367927757085
H         3.46166139798116   -2.60232654208642    0.21798026855019
H         4.46508652888062   -1.19285901641830   -0.02604535914347
H         3.18270501584998   -1.61717748606423   -1.21964912103819
H         2.80670036291591   -0.91523471992465    1.74187055075014
H         1.02389246293587   -2.25182947366768    0.78387554951029
H         0.92284613149888   -1.01998807973301   -0.51713454697845
H        -0.43204758050764   -1.75144284925619    2.62165748862315
H        -1.23792368869288   -0.25650373873388    2.64559912570427
H        -0.02643659959613   -1.32400033842950    4.98021113155042
H         1.22305655500918    2.82136157803965    2.87602192582783
H         0.55991190285820    1.62978072940745    1.78925209617811
H         2.86703144260330    2.74777815162832    0.99104094791588
H         3.72792680968047    0.83466077739169   -0.11794205624908
H         1.98894610850083    1.10347693301216   -0.34231490351221
H         3.12066896397093    3.35651958197931    3.76766432869573
H         4.61887168884438    2.72804235075194    4.17914893541639
H         6.21145236830778   -0.26405294300591    3.32160207592264
H         5.95156786975036    1.15882608669468    4.23142168965474
H         8.13105574438631    1.00382668370077    3.09411460493230
H         7.25577574877541    2.52138718175111    2.63255413142181
H         6.82489598836353    1.00682523990581    0.63737408345994
H         7.88503340053625    0.03385328484452    1.21707809376519
