39
 energy: -54.511533101983 gnorm: 0.122148853858 xtb: 6.4.1 (79825abcba525fcdf90b791dcacef51065a7a4e7)
C         2.75273653554374   -1.62257375592061   -0.51979450522909
C         2.27400071179705   -0.71772893722241    0.62020901844013
C         0.76526677434018   -0.99272313193962    0.71188800871995
O        -0.05376506938854    0.01891162308927    1.29016171545663
C        -0.41434924858271   -0.20428961948181    2.63834417769025
C         0.87823819290501   -0.17652966383413    3.43227851550792
N         1.33812911140858   -1.15963432477843    4.13660715070587
O         1.57256420046870    0.94421053929173    3.64591422427047
C         1.68521555089174    1.98530454227282    2.65701014958029
C         2.72151719263670    1.81324988808995    1.53281124140796
C         2.56648301845327    0.78250448282285    0.38702390753139
C         4.13778962025293    1.59061711064297    2.12891497229812
N         4.19627289714265    0.40787297376106    2.82914712319839
N         5.08014720126464    2.44492252788440    1.91377664136168
C         6.49732657620994    2.45326085228958    2.30621478671621
C         7.17837382332077    1.08820423561088    2.49776525311158
N         7.22018486727113    0.79190868136237    3.93148507110276
H         2.81832152310655   -2.65184573214541   -0.15309059425987
H         3.78642946539404   -1.45861647084897   -0.84318247567047
H         2.15819452686107   -1.62038315026925   -1.43108580581067
H         2.80710584906649   -0.95950674856692    1.55436099373161
H         0.47284775934169   -1.87647119669403    1.27448789910900
H         0.29782476214369   -1.09100118556858   -0.27606437976863
H        -0.69848281339323   -1.24038787174984    2.85844035889835
H        -1.16025407088004    0.46574805168836    3.06683804423136
H         0.75749836745199   -2.01138124753791    4.10382323601925
H         2.11457284368266    2.85990192027693    3.16678268687943
H         0.71163499699389    2.22521796467580    2.22640445513220
H         2.66110982798826    2.72546914459809    0.91251069061253
H         3.49735099490645    0.72313918858469   -0.19347743055540
H         1.77795154681217    1.17960711213600   -0.26896503094244
H         3.28311765833714    0.23531738753698    3.24813247390762
H         4.97796185082886    0.26259902619239    3.45629731205018
H         6.68733848132946    3.07625592738976    3.18848948494408
H         6.94995290230560    2.96717307876514    1.44944121976689
H         8.20539931154416    0.99439170269086    2.12759721166568
H         6.65985497657190    0.30512741612695    1.93524290086556
H         7.61893628046296    1.56384002087230    4.47138708727642
H         7.87559480837810    0.02995547561317    4.08731304005992
