39
 energy: -54.529978524741 gnorm: 0.103228274261 xtb: 6.4.1 (79825abcba525fcdf90b791dcacef51065a7a4e7)
C         3.14276007545964   -2.41683045029726    0.99229621724801
C         2.30885833815454   -1.16401199573419    1.27968791929265
C         0.88473276044440   -1.12665142260833    0.70455708303616
O         0.24119890029223    0.12898398779106    0.89913973895282
C        -0.68858046055622    0.18494332960537    1.96206710685582
C         0.03428453465619    0.19763069091286    3.29592987331620
N        -0.38063168081769   -0.36659846869822    4.38384680632546
O         1.28190698518907    0.67306852570796    3.33034678145184
C         1.72208254135310    1.74089670167387    2.46983134494836
C         3.03467639210354    1.35286131132327    1.76707032868282
C         3.02468639614932    0.12711097241637    0.82010853089809
C         4.26546540474934    1.21319150400481    2.70322383611753
N         4.03983640143037    0.98801157080814    4.04151177626947
N         5.39844137945622    1.43895144486046    2.12915242715607
C         6.73663682285090    1.32921681753194    2.72887395240462
C         7.52478399688349    2.47934144959156    2.08085088470124
N         7.74824743231003    2.34419376297777    0.63970865015418
H         2.59559929934626   -3.30727580075200    1.31771304960804
H         4.08178776394610   -2.47635943418945    1.55324732528007
H         3.35132071539570   -2.46750769338044   -0.07441420000554
H         2.18962362850913   -1.16131443270591    2.37562282847822
H         0.32625419870625   -1.98283559951522    1.07615971315479
H         0.94127864231998   -1.38560753675745   -0.36031606809798
H        -1.41358756271313   -0.63393245947428    1.88156282305145
H        -1.30016433936439    1.08284730056157    1.86898058531615
H        -1.30524992405601   -0.79790342627067    4.23305951703326
H         2.06594432741406    2.52799862074996    3.15639230093760
H         1.06245080755113    2.01969433014989    1.64642580429527
H         3.27724303401230    2.23353381948667    1.14566613404766
H         4.09189274208252   -0.09092759253607    0.67675218827462
H         2.57057100029528    0.41565889331441   -0.13922101605794
H         3.07991180940939    0.84998058104166    4.35562777070879
H         4.73385888764091    0.51756713333055    4.60937999755664
H         7.24588075449119    0.39406763320523    2.46657133411451
H         6.88004835488578    1.35027106239852    3.81608467725411
H         8.46041432383067    2.60088252429016    2.63801351179033
H         6.96971609889162    3.41204642094559    2.22390182151057
H         6.79808005285497    2.27217547612021    0.26772721370446
H         8.29691889404758    1.50429660168145    0.47252724734717
