39
 energy: -54.519273942793 gnorm: 0.107478739370 xtb: 6.4.1 (79825abcba525fcdf90b791dcacef51065a7a4e7)
C         3.29663912817098   -2.12454164308824    0.96718614214122
C         2.41419874855032   -0.89415496957008    1.20168090470315
C         1.01567715260751   -1.19072402114852    0.63910726141594
O         0.04650633853217   -0.17945980894928    0.89731483252412
C        -0.42784159725943   -0.25929288362694    2.22624537919159
C         0.41534819311086    0.30515963400814    3.35421211024694
N         0.28887443975845   -0.27250540117348    4.50502953338902
O         1.15107366339978    1.41974494740402    3.34024726690940
C         1.59002005474620    2.06429481525981    2.12930554266922
C         2.97271144493505    1.62448717460771    1.61736719952149
C         2.89938529560929    0.44964208454427    0.61055905585682
C         4.07741520075723    1.29142077305299    2.65632293554019
N         3.79478689850153    0.82451821808110    3.91915796071116
N         5.21741660378366    1.49898809866135    2.08933729125214
C         6.42178528133191    1.02181611232855    2.78523789620143
C         7.58368685643954    1.90694988088746    2.30521760163382
N         7.57602423594322    2.06297013070960    0.84895845095689
H         2.72428134256076   -3.03495013381641    1.17148224680601
H         4.12414861084147   -2.00815159546219    1.67546875737091
H         3.67672147297295   -2.16460398512294   -0.05157254288581
H         2.33027103483618   -0.70743467008109    2.28491180786828
H         0.83225740801594   -2.11878897471909    1.17584817376910
H         1.04486025860420   -1.44579809507611   -0.42780234023931
H        -0.69006712410599   -1.30089380885315    2.44755754346648
H        -1.35481610386706    0.31454327485433    2.20722428277819
H        -0.14765917621661   -1.20375502986461    4.58179015168607
H         1.75374555449526    3.14020556157325    2.28661517369391
H         0.77493556858400    1.84404280620841    1.43795530495936
H         3.45196536873412    2.44156097912694    1.04879716329735
H         3.91772410083989    0.42164786727782    0.19919104141756
H         2.19536428669874    0.77096157931152   -0.17104319604059
H         2.93551783177563    0.80827505956096    4.46740010956042
H         4.49290108458224    0.39690285889637    4.51517908484206
H         6.57397470305796   -0.02320752732289    2.48960294500174
H         6.41310896657422    1.09882035059476    3.87932765047204
H         8.55972770362787    1.44962198926646    2.50219983759642
H         7.41664223922236    2.87096952035267    2.79640467204603
H         6.80385120310991    2.63881541062151    0.50468255464792
H         7.41640479851406    1.12043150154563    0.50174122162901
