39
 energy: -54.519349921711 gnorm: 0.133852474955 xtb: 6.4.1 (79825abcba525fcdf90b791dcacef51065a7a4e7)
C         2.60356651203639   -2.52939055771219    0.57107496075938
C         2.02290417423922   -1.23006945660374    1.13864528748217
C         0.49817373810835   -1.21537307500548    0.95079954560812
O        -0.05208730583894    0.07892182558756    1.17581509980042
C        -0.33433162732482    0.29072043847117    2.54436000692013
C         0.86663721676201    0.38593610409424    3.46658145922676
N         1.12782922318373   -0.51348751400167    4.35926792111511
O         1.66033116336706    1.45924754649629    3.50947504796982
C         2.03051737431105    1.98259245439976    2.21968026976975
C         3.08788405840125    1.23141455759807    1.39200007639270
C         2.78331757425625   -0.02490949915729    0.53865994379938
C         4.33506425171917    0.84878974246752    2.23394568168105
N         4.18637422374785    0.25236523439842    3.46471703377496
N         5.44172685864553    1.04692315491284    1.60133117439265
C         6.64780579167535    1.04608668644308    2.44266794822230
C         7.46904192543676    2.28510343658690    2.04985088974634
N         6.51557617487339    3.39576347237158    2.09913674004939
H         2.15412236824047   -3.39264501171880    1.07203968469807
H         3.67222015370067   -2.62403301503808    0.79244578053253
H         2.48724213203495   -2.49101423134200   -0.51009696271907
H         2.31083105233237   -1.12571659378279    2.19765713454873
H         0.05011765245109   -1.96743120781351    1.59631674895653
H         0.20911141378159   -1.38291122553357   -0.09446810520576
H        -1.08070926611997   -0.44751781423896    2.86153264368220
H        -0.80824584400782    1.27272602697039    2.54301468882823
H         0.55000493041273   -1.35667599800285    4.49649736995744
H         2.51192410312064    2.93715443430486    2.47696468018130
H         1.16204260613917    2.11112511666246    1.57155240317897
H         3.51353528905230    1.97383128970558    0.69328395896497
H         3.74512092457158   -0.29659832126726    0.08243553029385
H         2.20426905198435    0.50639366811503   -0.23089422190306
H         3.39115042824631    0.57374418862944    4.01563564642774
H         5.01143853746943    0.10396120914953    4.03278799512532
H         7.20265657409867    0.10666289059849    2.33194492008126
H         6.42411542672553    1.14241940097141    3.51211637990480
H         7.87124842929995    2.29679664629486    1.03068469534669
H         8.27223708072501    2.49660850870650    2.76304486917755
H         6.46578884582716    3.80570589831621    3.03500174154950
H         5.64797004079524    3.01393221693010    1.73051535580531
