39
 energy: -54.527963205113 gnorm: 0.096429056583 xtb: 6.4.1 (79825abcba525fcdf90b791dcacef51065a7a4e7)
C         3.11403903982306   -2.19821072521806    0.57862171939049
C         2.30010908686603   -1.04422288291096    1.17307127102463
C         0.82136192559238   -1.42990979723724    1.01540903583722
O        -0.14957788162612   -0.40021907235297    1.17550717928873
C        -0.42405247667861   -0.08629764037395    2.52589701390904
C         0.71135082681989    0.35928984559024    3.42822496902899
N         0.99881880975794   -0.23068845143960    4.54328595718797
O         1.42417019192721    1.45919616155178    3.17154997305569
C         1.58925707291136    1.98559027690960    1.84107867262182
C         2.93450112484597    1.57246103343550    1.21899365115593
C         2.64328983300737    0.26954213397356    0.43356469094102
C         4.14520149223996    1.40686804502756    2.17686430259273
N         4.02119956741095    1.60888820338353    3.53201758717399
N         5.21931511076633    1.07901995777189    1.54207641366398
C         6.34895006562210    0.60782304668150    2.35716720510126
C         7.11574195816230    1.76864492538276    3.01170466855566
N         7.84520813936402    2.69399571794899    2.14182149014412
H         2.76296362030308   -3.13988556340851    1.01240565244888
H         4.19125148893938   -2.18646853454426    0.77726286696476
H         3.10376505221245   -2.19012005228680   -0.50938830976122
H         2.49554500288624   -1.05965013791205    2.25790504256341
H         0.52918338018828   -2.25816583475156    1.65701778926988
H         0.72094599349269   -1.77342171275717   -0.02195625028307
H        -0.91715220213152   -0.93776041415635    3.01018782640769
H        -1.19314768179721    0.67924171028214    2.63254381191880
H         0.31182692815107   -0.96690664095680    4.76623123246787
H         1.51334259967593    3.07897348602129    1.92988429853094
H         0.83401814778637    1.75489310687460    1.08793074830213
H         3.14056218905176    2.32866649860552    0.44036798611891
H         3.56007850689988    0.07011176913746   -0.13805344610170
H         1.77542056282158    0.47755839126131   -0.20933968647443
H         3.10872912510901    1.44918921649286    3.95754145169375
H         4.81349482036595    1.37499102945325    4.11769654359012
H         6.93913428036875   -0.07536888822588    1.73461807412594
H         5.98426846366887   -0.03407475149755    3.16834651135406
H         7.83356317700542    1.25169326919576    3.65831136354040
H         6.31564648989028    2.32057301710489    3.51541602368099
H         7.26499337169761    3.09603939447808    1.40149279540563
H         8.50173063952978    2.09529397292477    1.64689557314403
