39
 energy: -54.525766662323 gnorm: 0.102654721099 xtb: 6.4.1 (79825abcba525fcdf90b791dcacef51065a7a4e7)
C         3.42717353990288   -0.60190080332011   -0.55202441306253
C         2.47483462169874   -0.22078123802400    0.58610503272955
C         1.14907780195790   -0.99709396565018    0.58961705232261
O         0.07171176387518   -0.32100718469662    1.23055978989403
C        -0.03200472035153   -0.62941384266145    2.60590116440203
C         1.26172766014651   -0.48035887840727    3.38431219768113
N         1.96288728070838   -1.37767797615060    3.99853271568752
O         1.70573248195769    0.76509530364900    3.57270272745539
C         1.36907950141665    1.90074951613002    2.75328062113610
C         2.45743723484602    2.15695038041353    1.69631059448223
C         2.29756496708363    1.30533008033058    0.41237756162555
C         3.89019023960811    1.87248542905965    2.22264803121419
N         4.21482246291919    2.41770602557889    3.44329435927878
N         4.77914640568635    1.40937765705152    1.41058387191750
C         6.17777891777456    1.36887015962248    1.86297848228019
C         6.54117141795187    0.05637352785660    2.57655749569483
N         6.73453810303684    0.36353552222905    3.99548405378550
H         3.59656763390960   -1.68314735864755   -0.57165801332843
H         4.36425057843075   -0.08070479369376   -0.32791687181475
H         2.99933586500704   -0.31968696120466   -1.51184059698562
H         3.09327420756223   -0.48050411653554    1.46096159903495
H         1.31007630902135   -1.92733863592059    1.12976748567659
H         0.87085175235531   -1.19418603068385   -0.45343400584664
H        -0.32739752410539   -1.64770383384945    2.88608390746934
H        -0.86120007733586    0.00379419511647    2.92278300718593
H         1.58347798296098   -2.33606273430904    4.03355979051922
H         1.13007025555267    2.79658540921989    3.34445648463954
H         0.43950787348368    1.77795350783150    2.19501855558337
H         2.39002102164810    3.18453303851739    1.29619221764590
H         3.13807919406166    1.65638867015381   -0.20188210532839
H         1.30131044902672    1.51890707846417   -0.00193592181396
H         3.39052998889721    2.62649130006769    4.00554631672867
H         4.95384554495358    2.06614465720811    4.03970778590261
H         6.40870251452191    2.20011268196798    2.53999118832535
H         6.72483441209809    1.37784364080101    0.91235390755007
H         7.46882426781771   -0.33619491349372    2.14533047748513
H         5.74689155392667   -0.69131755110652    2.48392893091139
H         7.72144770611165    0.34117567851799    4.26359661146551
H         6.37012732659693   -0.41599695288318    4.53765666641660
