39
 energy: -54.525933691098 gnorm: 0.103067772911 xtb: 6.4.1 (79825abcba525fcdf90b791dcacef51065a7a4e7)
C         3.01286719654716   -1.92581221115051    0.17235550126617
C         2.32376016209790   -0.76883692561993    0.90316317191628
C         0.84263011443784   -0.91346171924420    0.52153195365698
O        -0.07594355678977    0.00313205520165    1.10864078140791
C        -0.38264029090413   -0.25427805212494    2.46404213427935
C         0.74764961507720   -0.14624689361707    3.47035153386175
N         1.06987706719452   -1.02014670300803    4.36842827265299
O         1.40610405312441    1.01459221810386    3.52209817198526
C         1.57857968619323    1.93133546827610    2.42467742920408
C         2.86970709884937    1.71586528484933    1.61603060453524
C         2.92193760236731    0.60839432959836    0.53432807871384
C         4.10086609346993    1.62309134336513    2.55750452383629
N         4.10214255883264    0.69745956453618    3.57526344624754
N         5.04088923201897    2.31992045398153    2.01441542218606
C         6.35786967420153    2.62439860781806    2.59349244387854
C         7.47259886673095    1.60987106964687    2.29016224202884
N         7.12951382686912    0.19286659762466    2.15058174889608
H         2.65149119943940   -2.89235979566267    0.53755011273648
H         4.07352361971922   -1.93944997763210    0.44586017980600
H         2.97735638991707   -1.89097432819840   -0.91459534276582
H         2.41370924569921   -1.03883778674931    1.96820129397585
H         0.39757113623053   -1.89794183794385    0.64706903257998
H         0.83171509169976   -0.60808112211853   -0.53242918710419
H        -0.84383417677508   -1.24765861410936    2.52033639572614
H        -1.11529569755596    0.51585461366411    2.70703021368951
H         0.55776765014388   -1.91243026332630    4.29594617160601
H         1.66053027543435    2.90362357905701    2.93170427047657
H         0.63500047952311    1.92320219037314    1.87656162785610
H         3.03743887701580    2.63855191180505    1.03200899420475
H         3.95823399792485    0.45344053989033    0.20402468644998
H         2.56908023580932    0.97412550120458   -0.44113398877635
H         3.19938352288129    0.56870731869662    4.03092298597102
H         4.97842431363499    0.63235190170799    4.07860307071221
H         6.24333331180709    2.87021054047157    3.65608077085961
H         6.69893265203758    3.55119801464581    2.11625432936922
H         8.17768639819682    1.73676351279667    3.11923184735338
H         7.92243438359201    1.99422958996991    1.36906559295120
H         6.34949698308501    0.14514833027888    1.49052753924067
H         6.95288626897139   -0.27638998438418    3.03546490463632
