39
 energy: -54.529237213176 gnorm: 0.110017809245 xtb: 6.4.1 (79825abcba525fcdf90b791dcacef51065a7a4e7)
C         3.21382970913201   -2.15003640351238    0.52150113102559
C         2.38479779691468   -1.01384435360108    1.12921315577628
C         0.90163539941506   -1.34153046617641    0.89865714723956
O         0.06906256396379   -0.18681685244643    0.94423639429354
C        -0.57964719106248    0.06663456880456    2.17402244054455
C         0.32730194802525    0.33463758982293    3.36040444929691
N         0.30667946059986   -0.31759613722723    4.47765067724807
O         1.32192485985673    1.22540174421830    3.39283761341906
C         1.70956957831068    1.93445587482125    2.20058254255861
C         3.03539205202460    1.41846989363197    1.61466415658630
C         2.85041041208630    0.33173141907270    0.52650901475777
C         4.11063808722302    1.05090106842516    2.67271507603415
N         3.80867652099461    0.51206778337066    3.90198597861728
N         5.22953173816899    1.52469837499471    2.23941008640218
C         6.49294466098095    1.35457575622124    2.97243173326573
C         7.56467889633377    2.25518790396703    2.33668019419450
N         7.74602205932641    2.14395388748769    0.88760000573000
H         2.80331474084708   -3.02098670636151    1.04217088033998
H         4.28072954249920   -2.00042652754871    0.71980514087819
H         2.90314106733647   -2.26495556769778   -0.51493651515527
H         2.59874387973107   -1.00898604896955    2.21064784660686
H         0.60623008083012   -1.98336501679447    1.72559261829202
H         0.78681660330553   -1.77806838481273   -0.10157373886986
H        -1.22235502050393   -0.79119317619477    2.40582407988421
H        -1.26090123358865    0.90174512091435    2.00844837483194
H        -0.43693090863595   -1.03182682417029    4.50210084548941
H         1.75798358474153    3.00308752847128    2.45517783291442
H         0.93698854979549    1.83870201037079    1.43586784029960
H         3.44103236371954    2.31642286769179    1.11496203371428
H         3.84911886336976    0.30515078366548    0.06945744237902
H         2.18000891007485    0.68434527725298   -0.27099907954855
H         2.87946918292490    0.43098346276823    4.31329569333313
H         4.57108009320530    0.31176414203640    4.53765785859372
H         6.84361056887089    0.33146990960920    2.79098229827539
H         6.43184946100106    1.52730389991233    4.05385194764335
H         8.44651009696561    2.15342800309602    2.97903927603159
H         7.21941768895311    3.28670747999934    2.46023005762227
H         6.85356865000508    2.39825038623465    0.45721056107867
H         7.99723599447988    1.24631716781748    0.48071290498624
