39
 energy: -54.521631596718 gnorm: 0.109026574168 xtb: 6.4.1 (79825abcba525fcdf90b791dcacef51065a7a4e7)
C         3.68769476245556   -1.05909661540136    0.12576086505066
C         2.56191947357963   -0.46053791315875    0.97540646996909
C         1.16611758388610   -0.85994272336146    0.47289494888120
O         0.04357395377933   -0.15927323795682    0.99975032434257
C        -0.32735757503533   -0.67359616943798    2.26280907439474
C         0.76835096637106   -0.51978519947844    3.30090809992642
N         1.19361656355787   -1.49704795953060    4.03451556103501
O         1.20605770923098    0.67071812821119    3.71912100289743
C         1.30968582600427    1.84137707920574    2.88646432755177
C         2.57613755771197    1.95599205597449    2.02025968183226
C         2.54833851234267    1.06913621265655    0.75060846406387
C         3.92904333172640    1.83398419613546    2.77225212294771
N         3.97034151549181    1.41579791909044    4.08223064931079
N         4.93803999542003    2.21443405773686    2.06419582514861
C         6.29853212416302    2.17389147681511    2.62087536532292
C         7.06839965129168    0.85915469222309    2.41431375699607
N         7.12821291986188    0.26896528796748    1.07521309713237
H         3.54499768927291   -2.10957304390005   -0.14683915040224
H         4.60924613108802   -0.93273625060741    0.70434446371713
H         3.68059791351923   -0.56134904818666   -0.84177922770335
H         2.78914885309849   -0.88111317875572    1.96877486037626
H         1.10269769361690   -1.92485513329691    0.68497427108445
H         1.16293667805648   -0.91615987252231   -0.62302477665757
H        -0.52777610382508   -1.74941533864049    2.19125967305170
H        -1.20759958200307   -0.11696529971515    2.58571394497709
H         0.80039205102726   -2.43268064897234    3.85108815341185
H         1.25358132152946    2.64522794686869    3.63467041313726
H         0.41706292286714    1.90965550307952    2.26244412389031
H         2.48030316858422    3.03138917429565    1.78594665131247
H         3.38160204031269    1.39277300472353    0.11189699075552
H         1.60435900091294    1.27430882086185    0.22467999807657
H         3.40787245735171    0.59052985633905    4.28652901207013
H         4.95766324986973    1.30713264563185    4.27932748234330
H         6.38905952562741    2.44034278706037    3.68080202771540
H         6.83155875977310    2.95285663752234    2.06218654126916
H         6.57307361086882    0.13984663746653    3.07601955834860
H         8.07992861131419    1.07204925687110    2.77485164695656
H         8.03022032049235    0.54571239204836    0.68003141757962
H         6.45855802532875    0.63989961098519    0.40559583035814
