39
 energy: -54.525865766280 gnorm: 0.093663254360 xtb: 6.4.1 (79825abcba525fcdf90b791dcacef51065a7a4e7)
C         3.31794063870929   -1.61426781049047    0.17910503543617
C         2.42716110528681   -0.61309840953456    0.92187809823485
C         0.95200656585567   -0.88383500818458    0.58882298063263
O        -0.07960090710177   -0.10936690168110    1.19264719119356
C        -0.49841928957973   -0.62031632231057    2.44203004402854
C         0.50274366629309   -0.43716401589045    3.56720226680015
N         0.72431500197244   -1.20278200348007    4.58642179287098
O         1.22208609282597    0.68808870396784    3.57904071478710
C         1.40940684408696    1.69772168169024    2.56906523932786
C         2.78176192553324    1.71227442722255    1.87352458510754
C         2.74794865360209    0.86035110801758    0.58031786784285
C         4.05210085094003    1.41774375364806    2.71627203747325
N         3.93644058900477    1.36028798470556    4.08592548520819
N         5.14071391876640    1.48934912677042    2.02782862257444
C         6.38141601293398    1.47726611956249    2.81712385683288
C         7.67573012398657    1.31400695683461    2.00349374826044
N         7.74103747001028    2.17756201300443    0.82235050676347
H         3.09356082195009   -2.66455886187900    0.39056745057309
H         4.34907473725316   -1.35821448104574    0.44590460399970
H         3.17530720225570   -1.46169914650135   -0.88875045196386
H         2.63956739426210   -0.79185886426726    1.98875474420037
H         0.77097645498637   -1.93679029109926    0.79266465500687
H         0.69468327475124   -0.74274625005197   -0.46857439672415
H        -0.83906080571368   -1.66122250946360    2.38589238517817
H        -1.29912557915684    0.04826291489904    2.75952446635922
H         0.19348754750997   -2.08351934855535    4.66518468478100
H         1.27787971505279    2.65082547970742    3.10144671090831
H         0.77394755171256    1.63501533277764    1.68413687769230
H         2.85427866366779    2.74880886428415    1.49815347248487
H         3.69595784263047    0.89336591656718    0.02605275162198
H         2.03971696904570    1.19645868984368   -0.19119585963605
H         2.98800192161298    1.13494549559511    4.38402192652769
H         4.69092232154738    1.21513877263427    4.74558335374304
H         6.29526316803147    0.71334812227624    3.59919995696298
H         6.40190500635040    2.45020184735418    3.32310171276779
H         7.88397253214181    0.29321700108473    1.66403904280447
H         8.53280099038892    1.55863141060552    2.63917520136832
H         7.12023781818520    2.96635273447775    1.01930700242636
H         7.33189750120364    1.81814410124572   -0.03662591043537
