39
 energy: -54.521775111048 gnorm: 0.113633463319 xtb: 6.4.1 (79825abcba525fcdf90b791dcacef51065a7a4e7)
C         3.21724150727242   -1.26549408167355   -0.23148984164107
C         2.28062974417938   -0.38761086909882    0.60494285372091
C         0.83197759668585   -0.84716310148217    0.38016817982960
O        -0.17884339217256   -0.16224420449201    1.11347953740418
C        -0.45850402032397   -0.41743912537244    2.47513337181161
C         0.72883852652017   -0.46068334844439    3.41865455966532
N         0.95144715365386   -1.50836707357415    4.14451780938541
O         1.65816686405466    0.49557888845526    3.49414488067971
C         1.57474854672789    1.73754428099408    2.76953347844200
C         2.71485412302748    1.81392349101590    1.73915850231103
C         2.42694466166986    1.13466762202771    0.37716733771982
C         4.19569324899486    1.75072899398520    2.20160259798403
N         4.34185949824757    1.39512146203833    3.52251431937820
N         5.16277799116332    2.04231936199065    1.39917986030445
C         6.49060977104150    2.11745230121637    2.02662902876370
C         7.28429196261705    0.88200506624266    2.48229911876324
N         7.10166822665649    0.54173288058512    3.89508188744353
H         3.03008509149283   -2.26585015329880    0.17154137442892
H         4.25374084544017   -0.95700290905502   -0.05688982215770
H         2.93523027026459   -1.24398395952675   -1.28217714800355
H         2.43694611734233   -0.67683716923033    1.65718372877065
H         0.77078770096843   -1.93096178108475    0.44853760589737
H         0.56526194268326   -0.64980559365788   -0.66583531403850
H        -1.07558752993954   -1.30906860373051    2.63908032310581
H        -1.14013036737112    0.42206762432690    2.61493828497155
H         0.23399637256837   -2.23509549484471    4.00026163622379
H         1.81553597240952    2.53092655120100    3.49182308909741
H         0.60845348164439    1.86854245323606    2.27968437713708
H         2.71408601291482    2.84691092064084    1.34736492697919
H         3.27025715788488    1.46845091345136   -0.24286007033672
H         1.48388375155823    1.55983334688399    0.00345073833420
H         3.54279521050960    1.05560242634628    4.05674247836766
H         5.15282317103889    0.93113781292258    3.91304804574665
H         6.43288303517159    2.83902963988053    2.85041893804323
H         7.10109635515594    2.53317517826761    1.21575422772551
H         8.33381848880571    1.12640070385717    2.28387690111777
H         7.02543281081525   -0.02863665153971    1.93254817254585
H         7.40069039678529    1.39592021880938    4.37186758804132
H         7.76113311380040   -0.18366729610716    4.16585463616497
