39
 energy: -54.527022853508 gnorm: 0.107966628723 xtb: 6.4.1 (79825abcba525fcdf90b791dcacef51065a7a4e7)
C         3.12879615215053   -2.10467534400233    0.83366431857418
C         2.26439536477800   -0.88346110923512    1.16379648149004
C         0.83354871554115   -1.13768113328832    0.66544420393335
O        -0.00302148254832   -0.01891158954208    0.94315543906754
C        -0.60961370815733   -0.00865103817728    2.21962567866048
C         0.37625353749147   -0.10246599505919    3.36903819717401
N         0.26572518079756   -0.97550479649769    4.31754226541412
O         1.33940974978973    0.81989102939639    3.44235281015780
C         1.59609411927570    1.84985733256450    2.46881242989149
C         2.86119396082407    1.63768486033081    1.61919349095640
C         2.78459511813119    0.46376990885155    0.61154443070566
C         4.08375533389695    1.44409063716972    2.55652886298369
N         3.94461788276376    1.33264671614870    3.92065865798192
N         5.23494861426200    1.57871440738792    1.99014508365112
C         6.43594941312491    1.71187727272428    2.82820199891738
C         7.64697711749556    2.21362405176077    2.02473538448991
N         8.25161474405770    1.25970836117096    1.09223876869856
H         2.65704740814944   -3.01780630136081    1.21025285690153
H         4.06005876812562   -2.04970776661733    1.40786929270780
H         3.37781413902940   -2.10687746055421   -0.22554389017987
H         2.27142016944941   -0.80949853772232    2.26369543332733
H         0.37496493768203   -2.03752052605146    1.06921164233106
H         0.84795934125695   -1.28132816386090   -0.42238317039288
H        -1.38882306775386   -0.76307496055684    2.38195590731885
H        -1.18826977833289    0.91313075866082    2.15324087587765
H        -0.48314437407963   -1.68450300112780    4.33152773728614
H         1.70446262854837    2.79318819916067    3.02335677635461
H         0.66621275341187    1.96102718254710    1.90863324225873
H         3.17908752621964    2.51979331815609    1.03490404753869
H         3.77567988328057    0.40528609838221    0.14106397029895
H         2.10096843503576    0.80058077427561   -0.18155510277446
H         3.09454447710596    0.79002270798284    4.06935647244352
H         4.73979041805883    1.04286665906928    4.47670511318239
H         6.60944146827015    0.70760163735877    3.23313039448761
H         6.27473415711694    2.27520002108125    3.75540987165585
H         8.43014988305247    2.51089749027690    2.73104654597565
H         7.31264239878567    3.04440304685591    1.39502984871010
H         7.66627315622357    1.28498382403766    0.25372147737460
H         8.31048759679600    0.31454542063933    1.46320809108013
