39
 energy: -54.523217173037 gnorm: 0.102733328422 xtb: 6.4.1 (79825abcba525fcdf90b791dcacef51065a7a4e7)
C         3.83628885519334   -1.21899728593631    0.52368661359392
C         2.65063108778361   -0.54669306888520    1.22351721044830
C         1.35206029406916   -1.26346886006943    0.82320323883338
O         0.12621751810390   -0.54752390059255    0.93874889560716
C        -0.53069485637457   -0.36060703249960    2.17607014736327
C         0.46934764881992   -0.36239207790724    3.31703306258654
N         0.73082935132156   -1.42871184756333    4.00162248836605
O         1.20398390017085    0.69115303338505    3.68328386392705
C         1.30261723337154    1.91595330074593    2.93186249699021
C         2.57987891429554    1.96389061845221    2.07532781226218
C         2.64701608770443    0.96399423247871    0.89422658658541
C         3.91428138472482    1.79645697316786    2.85125861165188
N         3.95264067942754    1.56352730751926    4.20658195364180
N         4.88217608696668    1.91321443652552    2.00644643189210
C         6.26744662509705    1.95446770675903    2.49817638553816
C         7.17312985617473    0.87195727821448    1.88841776101832
N         7.36453344618791    0.95190813254696    0.43856802172714
H         3.92941008178497   -2.23458060335855    0.92129560781654
H         4.81445745002842   -0.78553913552527    0.75881014257956
H         3.79146974969736   -1.31373000554138   -0.55934329884730
H         2.82413496570337   -0.76628574805383    2.28980655170476
H         1.32829415576517   -2.24184284155638    1.29781642073513
H         1.30505489537699   -1.47250970652962   -0.25304159398820
H        -1.20732219015853   -1.20095191351888    2.37271629751841
H        -1.09070441343493    0.57131483521899    2.09335144027734
H         0.50499170316508   -2.39590319237070    3.72374138394180
H         1.34240099458344    2.63883829068697    3.75950421717613
H         0.44256392739990    2.13812955185567    2.29799751054402
H         2.66783293165862    2.94466068800018    1.57440870290926
H         3.64378400475267    1.16175615288041    0.47665602899379
H         1.78552791751395    1.08266862756455    0.22076658357136
H         3.09434331546176    1.19573737935211    4.61552306579587
H         4.81752867565560    1.20736562111535    4.59462460383462
H         6.27234828415010    1.99198664057878    3.59417106840556
H         6.69105997361278    2.88754432518374    2.10707911864135
H         6.73685616355826   -0.09879932134691    2.14900061080456
H         8.19716728702666    0.98441886577440    2.25882596076759
H         7.91153727864348    1.77328222517649    0.16929812461387
H         6.51946852653273    0.96650474134705   -0.12717878982225
