39
 energy: -54.520845441268 gnorm: 0.102068785805 xtb: 6.4.1 (79825abcba525fcdf90b791dcacef51065a7a4e7)
C         3.53155425726644   -0.81449852642348   -0.51108914317117
C         2.64004740492908   -0.36642867500830    0.65166152962234
C         1.26951394300900   -1.04696740005477    0.51451187272488
O         0.22932627890265   -0.52121618029385    1.33317773606419
C         0.13879729684420   -0.92499716224113    2.68454781929624
C         1.16991297357502   -0.47665708654093    3.70321177601126
N         1.59439820425363   -1.31002938434277    4.59729015277286
O         1.44873559522279    0.82623731705872    3.79546973834082
C         1.12973917903137    1.73921493012249    2.72813122909666
C         2.32775773882901    1.94962005757456    1.78588481493897
C         2.38105437188774    1.14612921741552    0.46268330049200
C         3.70432951782868    1.92870659498146    2.50376040716881
N         3.80546421103177    2.88339827340755    3.48913578666607
N         4.64720781258667    1.08018279538008    2.26892438296128
C         5.89157332576747    1.03484693904036    3.05121190506613
C         6.91910759499655    0.17636543255960    2.29551398037816
N         7.60299527916520    1.01610979886054    1.30950243029846
H         3.50838881758757   -1.90855035364849   -0.53731729238494
H         4.50335253343201   -0.31156494284201   -0.45962294623415
H         3.01677820653097   -0.52093633399562   -1.42364801677275
H         3.11145675937891   -0.55619894647467    1.62995493183575
H         1.32404572851335   -2.11158631718396    0.73050031591134
H         0.88921977942079   -0.89100593955782   -0.50296682830876
H         0.21064117481699   -2.01408293118809    2.79133939117559
H        -0.84880195897877   -0.57412314051811    2.98532448822899
H         1.05760133817132   -2.17733935966440    4.74994071197916
H         0.99283069592289    2.67281177236976    3.29274551594852
H         0.27570749097857    1.42289445494495    2.12695733838203
H         2.29904433251855    3.00423126910981    1.45795717109216
H         3.30010214747449    1.54148899954104    0.00874159817767
H         1.50217062483082    1.27256745384176   -0.18644734402960
H         2.95513438074183    3.40790990873618    3.69162865694810
H         4.59743816690871    2.80049306529390    4.11472629209175
H         5.73559468483241    0.69274238096269    4.08139207105285
H         6.35322833499631    2.02293263411959    3.16782504750024
H         6.46544401985366   -0.70953292091499    1.83727823425253
H         7.78609527319881   -0.11207666078476    2.89853639097210
H         7.95694558109015    1.83404924723641    1.81156728022296
H         7.09493619721764    1.36960107930589    0.50244783581424
