39
 energy: -54.521891569961 gnorm: 0.112300797828 xtb: 6.4.1 (79825abcba525fcdf90b791dcacef51065a7a4e7)
C         3.12097336152891   -2.04278530483545    0.70374059605857
C         2.23119538410950   -0.87569719203410    1.14390039617603
C         0.78643233660045   -1.19276005470751    0.72864647365733
O        -0.07632233879776   -0.10686877352436    1.05285785259933
C        -0.66065951640719   -0.26536662590451    2.32991078124673
C         0.32153538357549   -0.29513270432407    3.48589165643610
N         0.44465187004212   -1.14554239709860    4.45321731803667
O         1.33819914478568    0.56647733261274    3.57426789953110
C         1.50941539176506    1.72214018591870    2.73187446759764
C         2.75636427581526    1.63527433460805    1.83470118825206
C         2.63210444687553    0.55853752468249    0.72813097531334
C         4.12777111592141    1.54998069645063    2.55768173282014
N         4.03924491698813    1.22027407410805    3.89038038799507
N         5.19370587784934    1.85026971224742    1.89604008721684
C         6.52281024401369    1.67718363849265    2.50101730900405
C         7.63570042263250    1.41855305984633    1.47219166852352
N         8.43927830279338    2.58553694138626    1.10137776398376
H         2.84797302848136   -2.97331490628122    1.21144073150012
H         4.10610555700898   -1.88900809145340    1.15744751805937
H         3.17384199793167   -2.33526915203979   -0.34296611309444
H         2.30051448981197   -1.03833584357186    2.23203689456472
H         0.30779709878795   -2.05398729920877    1.18933519889896
H         0.70029512524517   -1.19699339734784   -0.36532472914003
H        -1.22914090378902   -1.19851749903517    2.42335677233491
H        -1.31966074043181    0.60175782860067    2.38229439181165
H        -0.27948597938140   -1.87970302001802    4.43554757414623
H         1.50290885419890    2.60243328525977    3.39079631853400
H         0.62965449025204    1.88863499226243    2.10806436346522
H         2.89208100389780    2.59250259310745    1.30004163384879
H         3.53184314368461    0.50512085836074    0.09992864981641
H         1.85443571060694    0.87274900287742    0.01658593373526
H         3.24617935353029    0.68890375845795    4.24796846159887
H         4.88905331878002    1.27386209653324    4.43848028881453
H         6.59326559206224    0.77942908559676    3.12688378931053
H         6.77016698772474    2.59072829960726    3.05535304580911
H         7.24745498968175    1.06787448373393    0.50943699981325
H         8.33360213228098    0.73172709194274    1.96178925563808
H         8.55048877955264    3.27479256954378    1.84899650322809
H         7.82757789801426    3.05397547129654    0.43744614508520
