39
 energy: -54.515449093309 gnorm: 0.118949317579 xtb: 6.4.1 (79825abcba525fcdf90b791dcacef51065a7a4e7)
C         3.38984749645644   -1.28777672128665   -0.09576283134882
C         2.35997834913360   -0.55896094497900    0.77356868550296
C         0.90752424417488   -0.98084456452863    0.50394630249624
O        -0.14283380116413   -0.23368183903075    1.10984592481987
C        -0.39150081966421   -0.58604585291376    2.45574339213343
C         0.71109748206605   -0.56279696048518    3.49767481252838
N         0.84191321463498   -1.45469255357670    4.42583575434572
O         1.48121279991255    0.52345966114438    3.60138763503617
C         1.51913303047627    1.69645656683799    2.76643935283846
C         2.73082619642581    1.83987235567085    1.82911407065797
C         2.59347036662157    0.95518526004476    0.56508778990603
C         4.12294597709788    1.73708699693214    2.50894515286713
N         4.21518675490775    0.70370240181435    3.41240350124889
N         5.04036140825752    2.59602697513125    2.21785903230784
C         6.36966216220004    2.52091930414849    2.84219306431463
C         7.38697996731438    1.38201468406931    2.66370703124101
N         7.02607594919635    0.74342734396811    1.39601375623505
H         3.22163890209339   -2.35177151466171    0.09864628053170
H         4.42555829387660   -1.05975815773477    0.17863382668820
H         3.20986550909214   -1.20351154447018   -1.16554911912638
H         2.71771800027645   -0.74310637996977    1.79992647845296
H         0.83188483256351   -2.02131077969750    0.81175613838248
H         0.77605610964597   -0.88323381689498   -0.58113378910043
H        -0.60887835171397   -1.66057052560985    2.42715091800837
H        -1.19611301125001    0.01629353562054    2.87849385629639
H         0.16876282495594   -2.19199639353427    4.16712497581062
H         1.65894376980038    2.50628853585572    3.49702913711280
H         0.60444770148857    1.75803767576391    2.17449566420525
H         2.65432942393226    2.84706801080537    1.38159763021183
H         3.54923220954444    1.04012494392508    0.02999360508821
H         1.71478849404845    1.34108680785067    0.02769404848458
H         3.32099100813789    0.29328881505266    3.67914550624778
H         4.80821123650321    1.00354281996169    4.17652207838854
H         6.36069061653955    2.66828459683208    3.92885723660291
H         6.76240721812871    3.44104433656049    2.39257259491164
H         7.32860780710624    0.54631840451698    3.36997252451633
H         8.40764436431096    1.76284539222372    2.77194131749444
H         7.68770772079830    0.00498398826732    1.14437973684529
H         7.09393984146835    1.45356433867415    0.67108812142465
