39
 energy: -54.523094289949 gnorm: 0.109278288021 xtb: 6.4.1 (79825abcba525fcdf90b791dcacef51065a7a4e7)
C         3.24529372348123   -2.11057511019443    0.86645788088546
C         2.41737330489222   -0.92377910451545    1.37004820743866
C         1.05976749574624   -1.10622686362155    0.67440156427338
O         0.14795032518586   -0.01851589098628    0.79311472011747
C        -0.72186849099434   -0.01811115336576    1.90704952595721
C        -0.00066548950041    0.00692829215030    3.24163705936164
N        -0.48588840195377   -0.60465664132144    4.27342959880990
O         1.15574997034452    0.64300071867072    3.44633822355363
C         1.62404448909705    1.74737577746574    2.64912162916414
C         2.98295385043639    1.54806330541785    1.95558938243765
C         2.96282826488052    0.43640891130078    0.87710905446414
C         4.30392594864722    1.25822576742398    2.71832100536637
N         4.24569782540649    1.34835043971429    4.08985886438469
N         5.42136267735308    1.25846800603703    2.07373184097906
C         6.75040508698601    1.12558414636882    2.68892514163097
C         7.67064164724821    2.16209010252422    2.02355561583423
N         7.62154558104525    2.15864214004109    0.55976962375080
H         2.64158595287260   -3.00272881291942    1.06080976553321
H         4.13760038167992   -2.09588992214987    1.50171847751760
H         3.50047640409662   -2.08268569104206   -0.19091661294942
H         2.34498379073750   -1.00243433050736    2.46725859544610
H         0.60962283878654   -2.04479661480208    0.98982949066779
H         1.27177305731676   -1.18185396158338   -0.39963042964351
H        -1.25831882550537   -0.97290099427078    1.96424387883065
H        -1.46078615651190    0.78364833010432    1.91772144675126
H        -1.37118435382853   -1.10761275456695    4.10921665739682
H         1.62109169225267    2.54803066347469    3.40283199679073
H         0.88334310201402    1.80589576514520    1.84988719143987
H         3.07623330998046    2.50627648959274    1.41365557940871
H         3.96368444341782    0.35873917375083    0.43070614124668
H         2.32709286762796    0.71373306872302    0.02345473685012
H         3.28596492761296    1.30904815761685    4.43124535921568
H         5.00248976480293    1.17248975398466    4.73931900461864
H         7.17020892684123    0.11860040482491    2.57763936177472
H         6.72189514477723    1.35810931941010    3.76044580907397
H         8.69385624884857    1.91810948130615    2.33033219592890
H         7.45316483609547    3.16915777608107    2.39371914980158
H         6.67342906028351    2.37665603826865    0.24366857293177
H         7.68654075850078    1.16814365134033    0.33817177396975
