39
 energy: -54.515089052086 gnorm: 0.120817516560 xtb: 6.4.1 (79825abcba525fcdf90b791dcacef51065a7a4e7)
C         3.52779311509760   -1.77400861626115    0.62392253865000
C         2.50069293523018   -0.83791970927666    1.26916897477558
C         1.07983588115122   -1.36514818928902    1.01717630843735
O         0.03956142369767   -0.40164007177345    0.88264128112874
C        -0.63710133699935   -0.09956724310921    2.08610095556666
C         0.30865844199472    0.00064894445174    3.26820913364446
N         0.31277191559799   -0.82157558566979    4.26721019654374
O         1.19550627337711    0.99133586327696    3.39401745779231
C         1.58245498116246    2.04847477527814    2.49555971011003
C         2.81607452630349    1.70219553811526    1.64372604258260
C         2.72886972499007    0.54541647895276    0.61729638532688
C         4.07851864769164    1.63085331158227    2.54476863464450
N         3.93031219638733    0.98061770850522    3.74803817953661
N         5.25701422528117    1.98466246445606    2.15730590864958
C         6.39871125395155    1.66426379630800    3.02698817870486
C         7.69250467953180    1.67473856633888    2.19639478434221
N         7.52781799828044    1.16328894324639    0.83390099538209
H         3.30960644987645   -2.79061384544497    0.96609550828208
H         4.49855881696370   -1.42764316519916    0.99490471638992
H         3.38425899058263   -1.80861783279351   -0.45410204191747
H         2.73503854654901   -0.79036813190174    2.34532811429874
H         0.82366652785273   -2.09589682483798    1.78099687171023
H         1.13423653400616   -1.78535393811794    0.00491239455430
H        -1.36070115569717   -0.88112317961588    2.34734299473131
H        -1.07780586837652    0.89411649800711    2.00063981369497
H        -0.31415875469936   -1.63665894624112    4.34643584287917
H         1.79887659427046    2.90466006876053    3.15072740547076
H         0.75363721100679    2.22287152829691    1.80745674793445
H         3.17946339924802    2.50348832898212    0.97556124206594
H         3.62239834404349    0.51164981102825   -0.02105120565135
H         1.91708087990916    0.80848066683292   -0.07667045138447
H         2.92163369878795    0.94726655703353    3.89167676517290
H         4.57612396251103    1.30650879711510    4.45668595746723
H         6.12732622458901    0.66085665885305    3.37650260537375
H         6.54056571917530    2.35741553402709    3.86511424243737
H         8.47552744529211    1.13892217366130    2.74446656523196
H         8.18273029637016    2.64636072615888    2.07751783986141
H         6.89609060913403    1.76359542866143    0.29824485499694
H         6.99018641711293    0.29998991600153    0.84308295420607
