39
 energy: -54.523442116389 gnorm: 0.111437614239 xtb: 6.4.1 (79825abcba525fcdf90b791dcacef51065a7a4e7)
C         3.53951965961926   -1.81343205515520    0.73827432279689
C         2.41014983588567   -0.86861778465777    1.16181883797269
C         0.99910922973412   -1.21178373476050    0.66031463200382
O         0.09887943045987   -0.14291151053518    0.93548183551873
C        -0.50975161636428   -0.18140861384499    2.21044140493405
C         0.48577841548472   -0.29387409827309    3.34980793267473
N         0.42874058107218   -1.24856392324266    4.22123622161468
O         1.41302560692363    0.65502217737372    3.50341753453084
C         1.53986342214170    1.78134221014032    2.61470291278134
C         2.86394860180749    1.65977196535168    1.84051546769681
C         2.73497151391318    0.58175015138847    0.73573758945942
C         4.08292832015302    1.46790681177653    2.78285764941660
N         3.96207227369272    1.24760614574162    4.13544422752947
N         5.15191237650396    1.47603020493575    2.06080004868327
C         6.45732783488580    1.37532473319576    2.73029503862138
C         7.51118417130010    1.48650719689992    1.61632833442639
N         7.26526673662612    2.74523433195609    0.90906433759091
H         3.35944820487715   -2.82181738332135    1.12415934235168
H         4.45481971342151   -1.29368453819734    1.04170664791520
H         3.55335911729949   -1.85141657474828   -0.34906301238513
H         2.58316019182551   -0.95597006076396    2.24705360578641
H         0.62355929192793   -2.15453371392213    1.05175156788772
H         1.12723843979615   -1.35531553187615   -0.42005199909500
H        -1.08780052164607   -1.11224520713964    2.25600991917384
H        -1.15320540661934    0.69249128800456    2.31626035862589
H        -0.26235900202429   -1.93827311022432    3.88902805106074
H         1.44060542011195    2.61216947914786    3.32815240344399
H         0.71441998079533    1.77735975045894    1.90093398921760
H         3.12654174251527    2.56730339269857    1.26780495135443
H         3.67953092671190    0.51866796014319    0.17819891308290
H         1.99413339976996    0.85885383417036   -0.02857012903549
H         3.01140656377014    1.01173848214119    4.41789383780253
H         4.76610191217575    0.86818290710340    4.62024710970102
H         6.36124323292972    0.47571937384018    3.35006434607946
H         6.66263583103487    2.23023934298398    3.38604419380548
H         7.44390245404354    0.63501470193324    0.93000462304071
H         8.50196278029453    1.37248375761617    2.06783570906910
H         7.50958195774762    3.51128802702250    1.54139864843252
H         6.25269866738792    2.83647349884582    0.88080560119882
