39
 energy: -54.519927735951 gnorm: 0.108062728106 xtb: 6.4.1 (79825abcba525fcdf90b791dcacef51065a7a4e7)
C         3.02316027295772   -2.21151044593342    0.75705991279357
C         2.12948597086439   -1.02929438476375    1.14597067728987
C         0.63544604813212   -1.24896699318947    0.86331615617079
O        -0.13885885622985   -0.10021923006744    1.19414692193894
C        -0.48382819538007    0.04487375400448    2.55700415546830
C         0.66268479047272    0.14258955082233    3.54586418784186
N         0.94991494322681   -0.65510650282603    4.52323466884097
O         1.57149509429907    1.11228758049179    3.41343706749651
C         1.80490140077300    1.96763464496362    2.27835945193840
C         2.96844977377553    1.44030645316989    1.42078891165381
C         2.59490059757228    0.27908609309697    0.46615360728471
C         4.19892886910905    1.15064075499837    2.32231404052972
N         4.08917376601716    0.29726279036142    3.39577987975135
N         5.33514070746680    1.51211666630889    1.82985296619029
C         6.52778883368511    1.10940187235919    2.59004103364337
C         7.68404428702717    2.02539860083630    2.15654379563784
N         7.20515374524023    3.25037447421164    1.51219163734627
H         2.66901714441717   -3.16472581888498    1.16219821289577
H         4.07092857588805   -1.95905716834398    0.95310013349525
H         2.89741230193008   -2.19593167280319   -0.32362578942484
H         2.20555671944881   -1.02446171171807    2.24573764669892
H         0.25342112839049   -2.09767345319295    1.42615934708521
H         0.39223090762724   -1.48742670048427   -0.17984916466757
H        -1.06880245876206   -0.86652295429527    2.72973206173440
H        -1.06846892611381    0.95113426415216    2.71768571770033
H         0.26696844438837   -1.40562718111194    4.70757795632397
H         2.20816166655631    2.89440549938198    2.71150288027667
H         0.92742989812982    2.29693480767588    1.71939258956758
H         3.30989602716195    2.28230744185876    0.79228705677577
H         3.49778734007366    0.05883569213258   -0.11977003114854
H         1.75183520915421    0.69963153471495   -0.10145201411856
H         3.25507976728544    0.21019168249160    3.97533354401466
H         4.94586368424119    0.37309668858101    3.93037421910012
H         6.85449540581761    0.10804863115663    2.28476976036270
H         6.35519498293650    1.01867494048005    3.66940070652806
H         8.23624547481432    1.42370159640664    1.42603636969430
H         8.29546148738682    2.17814289137287    3.05172014388528
H         6.43395568753064    3.64367577832360    2.05711595452384
H         6.69740674041097    2.84293888010990    0.73077852488512
