39
 energy: -54.521298597381 gnorm: 0.116900351712 xtb: 6.4.1 (79825abcba525fcdf90b791dcacef51065a7a4e7)
C         2.55910943135534   -2.83486256322248    0.84017399705739
C         2.06988468870859   -1.43320704791886    1.21906862193949
C         0.65513707758295   -1.12769815937860    0.70384200494659
O         0.23493088197074    0.19570341517712    1.02110143630918
C        -0.61161706950392    0.38686797882834    2.13656025208349
C         0.20169687267988    0.52937234567856    3.40939079005843
N        -0.30507715772942    0.62686960409038    4.59587619686943
O         1.52950738883180    0.53992315993039    3.26588001412498
C         2.14720734472053    1.48132535236725    2.36771131391365
C         3.30383344408764    0.90424741178503    1.53311906072721
C         2.93911345857332   -0.29905866144149    0.62850083841098
C         4.50938327293588    0.76474140147210    2.50158191639361
N         4.64143151879679   -0.38571662769229    3.24430571753460
N         5.37382653243656    1.70522855478290    2.32163230620029
C         6.69837906700186    1.70435238209675    2.96040806398312
C         7.28418157133583    3.05374777859954    2.51334651551411
N         7.41441251648053    3.22824298370246    1.06500847823836
H         1.83027826371978   -3.60093001383900    1.12322830154882
H         3.47714060195187   -3.04703899214657    1.39890718803472
H         2.82901940250657   -3.01021847370270   -0.19921800987819
H         2.04444595658620   -1.38385631381405    2.32007492830556
H         0.01351699331439   -1.98500400248417    0.89459975635366
H         0.82232870286857   -1.04002619400883   -0.37716267836446
H        -1.27534594083060   -0.48460476189027    2.18826172832098
H        -1.20158989536733    1.25989206250949    1.85603842916920
H        -1.33146411154489    0.53445428758918    4.63672832008363
H         2.48849036585794    2.31444984401778    2.99903197029951
H         1.45364658555242    1.96778183979366    1.67983605130612
H         3.59028545942294    1.73561312148242    0.86428267429509
H         3.90481295254014   -0.69459175923210    0.28499059921933
H         2.44110672461072    0.15116255170088   -0.24275344191018
H         3.74013506763541   -0.72690775923872    3.57661575304671
H         5.36440872236990   -0.49174769637327    3.94539121312547
H         7.31322760030351    0.90859308097828    2.52295582373964
H         6.56382375955828    1.65088804539788    4.04764021633809
H         8.24717157727136    3.22362506541285    3.00771327392300
H         6.75199473449447    3.94594488255615    2.85869272489203
H         6.46775073449812    3.03943305512161    0.72654555073399
H         8.08619315109274    2.54534292099454    0.72328414553486
