39
 energy: -54.519572039376 gnorm: 0.110252704163 xtb: 6.4.1 (79825abcba525fcdf90b791dcacef51065a7a4e7)
C         3.80955415193621   -1.46931470724439    0.94640073380797
C         2.58064216968482   -0.62673081255700    1.30328713392488
C         1.30089367560451   -1.11748311317538    0.60923315458489
O         0.25366476169325   -0.16368546256215    0.75823035778887
C        -0.43708327631130   -0.24804411889001    1.98834679559436
C         0.40148758263905   -0.39114886060903    3.24461291804547
N         0.22249035535634   -1.29877844196824    4.14918009957294
O         1.26692319445017    0.52791830076786    3.68064522439334
C         1.44652038657619    1.81808787711772    3.06606760902797
C         2.68092894125475    1.85803102851370    2.14846902411121
C         2.74588693507923    0.87095496543465    0.95651195790969
C         4.03751693641409    1.54647104886760    2.83646031687255
N         3.98951606225712    0.79156133572792    3.98556270724543
N         5.10328797634964    2.02887880452877    2.29279227493323
C         6.44868254906579    1.58324737680676    2.68496662548557
C         7.17156344398127    1.10143961813565    1.41642375053377
N         7.15190503432830    2.05649611808649    0.30621099103485
H         3.72912046193126   -2.50247181508558    1.29894968624991
H         4.61504696844273   -0.98581621378680    1.50977749866143
H         4.02401115612195   -1.48581190078676   -0.12021675773322
H         2.64049880737807   -0.79228938570673    2.39154494397691
H         0.90747918834697   -2.04186345417610    1.02610746352764
H         1.54826644836077   -1.38266156885278   -0.42647801774332
H        -1.33908332340654   -0.86614504401230    1.90455569565578
H        -0.88957260326390    0.74316268250282    2.02950462281550
H        -0.36347187081112   -2.07401174144417    3.80372204603030
H         1.51712900798478    2.58204356172186    3.85380006073433
H         0.53998753310512    1.99841594317654    2.48596521179844
H         2.79942514152965    2.84217091434908    1.66062361899909
H         3.68623742677269    1.16509569307555    0.47046316867193
H         1.98841266401091    1.16928278758508    0.21689914483603
H         3.27675606534116    0.10904394858259    4.24114015498305
H         4.89960470617723    0.61452246595249    4.39281619260118
H         6.51572349425447    0.74533474203416    3.38927051550224
H         6.99770312125022    2.48127723446901    2.99344045646103
H         6.69259051266511    0.17880544996096    1.07010358585615
H         8.19960441527896    0.88923148910583    1.72723233502857
H         7.46299998881142    2.92705525889775    0.74407122340464
H         6.15824579581818    2.18184642986542    0.12916338968911
