39
 energy: -54.522466290945 gnorm: 0.127319394945 xtb: 6.4.1 (79825abcba525fcdf90b791dcacef51065a7a4e7)
C         3.09949989261125   -1.35293103694476   -0.18507758242178
C         2.20951527657060   -0.49249048398375    0.71775663759251
C         0.73103664042574   -0.62263963475678    0.32093540812508
O        -0.08903419999555    0.17482078087505    1.16955736940620
C        -0.28181735133424   -0.48160741434953    2.40623533068277
C         0.95690092140788   -0.56847034400678    3.27796723922625
N         1.16761481480547   -1.51206198927461    4.13779729592302
O         1.76971946185901    0.46735756184806    3.50196278791888
C         1.57679165723420    1.66251504969710    2.72165785611546
C         2.74866423349508    1.80551912383828    1.73494026510700
C         2.55732179179451    0.98705533936708    0.43386170435618
C         4.18127138599058    1.70737329482176    2.32547961889288
N         4.24694042952559    1.34448055278297    3.65085709895034
N         5.14554138199315    1.98990657490284    1.51645651597506
C         6.54129854438418    2.20658135796804    1.92558804613521
C         7.18455741448086    0.90711890273743    2.43697036231887
N         6.77428342622028    0.69645901854200    3.82707446241877
H         3.00917520256388   -2.35895168489977    0.23674923303956
H         4.13978282002449   -1.03038836018522   -0.06777241362177
H         2.76073848274272   -1.40136321386243   -1.21795311747126
H         2.41348051309969   -0.76527598676756    1.76622398142768
H         0.38099819904146   -1.64633116751628    0.43303760809976
H         0.59979629798489   -0.27938671189392   -0.71306843259403
H        -0.70322447537708   -1.46839294731375    2.17964286634873
H        -1.02369511331797    0.13426370351266    2.91540292172636
H         0.42670627043626   -2.22927173475468    4.11923987156702
H         1.71817396334168    2.52777000384879    3.38534543700560
H         0.64124010754497    1.84143794789194    2.18914615670071
H         2.70475214366481    2.82785711935428    1.31845189597000
H         3.47978276600796    1.15289705121312   -0.13936034324870
H         1.81611494648960    1.51015050706229   -0.18805286006969
H         3.50112607958989    0.86240705152201    4.15139952203164
H         5.18435555435080    1.14995078268994    3.98081247205181
H         6.66102086573918    3.05383896211785    2.61148683769971
H         7.08536201140503    2.45927684499763    1.00734121117713
H         8.26558875489122    0.87270548410016    2.26148963035235
H         6.68890078965483    0.09657717823016    1.89305021516733
H         7.17877911503261    1.47329543308384    4.35554706701668
H         7.04729753568497   -0.18878234644638    4.24686995594485
