39
 energy: -54.520904808448 gnorm: 0.108021009883 xtb: 6.4.1 (79825abcba525fcdf90b791dcacef51065a7a4e7)
C         3.25758948537917   -1.92755080716250    0.24439023527264
C         2.30649335754106   -0.91481407653412    0.89039382560468
C         0.87518338766281   -1.47301007184167    0.88179507635758
O        -0.05604775936454   -0.47913676407573    1.29849989722657
C        -0.38264871264048   -0.34533935491516    2.66702674634721
C         0.75458673647159    0.03484926339152    3.59656250991437
N         1.05895228085889   -0.64457777852535    4.65477502999740
O         1.44844282881374    1.17173265970679    3.49732916694892
C         1.60795027536580    1.81589235976691    2.21900449796727
C         2.83695853688527    1.57193490249569    1.32604843349031
C         2.43581228473316    0.50060400851160    0.28171510777872
C         4.13435262645428    1.31175006829592    2.13833225446896
N         4.06511696961987    1.81752686170727    3.41583970779766
N         5.17558458719011    0.85977543127142    1.52537630797962
C         6.46921437921063    0.60877350721237    2.17805894325747
C         7.45842130320515    1.78416036230060    2.11615647117225
N         7.13687159402209    3.01410961608628    2.84342695276170
H         3.40126446696098   -2.89351300704609    0.73880754406959
H         4.21238229592807   -1.39459147228717    0.31002471478672
H         3.04184900025744   -2.11578148931143   -0.80535358456369
H         2.52041807089809   -0.82480748370107    1.96809162327347
H         0.88974310837749   -2.31760446796341    1.56698591048845
H         0.49601111281421   -1.76146120123966   -0.10675682411016
H        -0.82201316442542   -1.25755787785427    3.08832239674923
H        -1.12597306778349    0.45016686340533    2.72677811871371
H         0.51127968451548   -1.50771042151890    4.79165609834806
H         1.49462732786612    2.83916528312038    2.60527735057179
H         0.76896040066244    1.56835071103561    1.56657983765069
H         3.05066477452298    2.50660927123818    0.77715932211378
H         3.28979084661989    0.49518393005154   -0.40945236337758
H         1.55228366712070    0.67307719163811   -0.35028491995951
H         3.15834824163939    1.82892119667247    3.88147612607317
H         4.79501637156494    1.95995368227342    4.10316855496683
H         6.89659508607523   -0.21492216090348    1.59367275079511
H         6.28824271628677    0.15135264798001    3.15839190871742
H         7.44295003361542    2.05009900627294    1.05330944099563
H         8.43060503304346    1.42958405186923    2.47341958971108
H         7.60578378544310    3.15651773147936    3.74132235550578
H         6.12557318760994    3.09899014597081    2.91041996159400
