39
 energy: -54.522771243042 gnorm: 0.117708740120 xtb: 6.4.1 (79825abcba525fcdf90b791dcacef51065a7a4e7)
C         2.90127787728183   -1.45974742028217   -0.34809455690416
C         2.21072906489204   -0.54742537551743    0.67090053787026
C         0.72298019476150   -0.64580092110118    0.30045419153865
O        -0.19072432733176    0.03074859236561    1.15838386066271
C        -0.26761553799636   -0.59649401972507    2.42253975317911
C         0.94591539007806   -0.54770730638544    3.33185110835228
N         1.47436941379179   -1.50883463634230    4.01817743800095
O         1.51271525963399    0.63892810580089    3.56513570177577
C         1.55462506118366    1.78651839771020    2.69578054208394
C         2.75853208760763    1.84385557799333    1.73939808960569
C         2.76565933557342    0.88787856120234    0.52064567713914
C         4.15540803269727    1.84365653635151    2.41724037632539
N         4.29551863151371    1.63020914328783    3.76906813466657
N         5.06822844733602    2.14106618036043    1.55557542235414
C         6.49990700226565    2.10459060494945    1.88940276869030
C         6.89281771262919    0.75076599999076    2.50314264997900
N         7.06740389689576    0.79769506492763    3.95655555420325
H         2.43343546439763   -2.44768368478523   -0.40536029589622
H         3.98791466282893   -1.54776705219638   -0.24106238166255
H         2.81926860941075   -0.90999664973549   -1.28350110526312
H         2.32035078314093   -0.97604590952886    1.68063566354397
H         0.47875187491989   -1.68246843762038    0.07974817175433
H         0.59106936471942    0.03701719838086   -0.54840945120580
H        -0.57641762943354   -1.64484130756184    2.33152867677876
H        -1.12588740229100   -0.06141351771865    2.82995812768817
H         0.94577574428142   -2.38521362666043    3.89078724922060
H         1.50998887241510    2.64689303545645    3.37908089611380
H         0.69624460942532    1.85414049745350    2.02537091908304
H         2.64131567246837    2.89402129459262    1.41694175932242
H         3.83183570673501    0.70835865485028    0.32555137997872
H         2.23030194508308    1.35382501192619   -0.31964012618320
H         3.43817163937808    1.36137456224703    4.25058733534733
H         5.27510279547355    1.55641248888772    4.01489007102703
H         6.74785293047839    2.87619129912906    2.62817961653174
H         7.11924351796018    2.34041048819178    1.01541845535431
H         7.84568599568617    0.55350603996438    1.99941943414656
H         6.19993770064830   -0.06759029891270    2.28243297507888
H         7.89474664559962    1.31541375253716    4.26289883806948
H         7.20173066825596   -0.17117947287116    4.23522324949485
