39
 energy: -54.525287771857 gnorm: 0.108084291359 xtb: 6.4.1 (79825abcba525fcdf90b791dcacef51065a7a4e7)
C         3.08171934125078   -2.25217548153144    0.88794488529596
C         2.17476885548147   -1.05926775701244    1.20724435084512
C         0.71683133173573   -1.28456551250927    0.77833405549849
O        -0.05469853775343   -0.09432845801358    0.90754680193329
C        -0.59832865748727    0.09566855138784    2.19820675561635
C         0.42625127410747    0.18698850932326    3.31345616833785
N         0.40857282097188   -0.53690575884884    4.38571444351236
O         1.26710356398619    1.22267586123340    3.37753854553454
C         1.73011570926767    2.02709729041531    2.27616474467789
C         2.95193806330472    1.41881317702984    1.56589178595271
C         2.69802113814006    0.25275085143908    0.57840753184582
C         4.12755170601396    1.24360842243872    2.56487550660661
N         3.99370869681091    0.43443057162605    3.66938730410263
N         5.23589415678244    1.68386183461012    2.07302791922971
C         6.45295006429707    1.48980428089585    2.87526930817679
C         7.68368252310897    2.27123108915253    2.38683682556665
N         8.06127826247087    2.23738210193973    0.97213988061952
H         2.66344278346854   -3.19798084910019    1.24665211597629
H         4.08836773990696   -2.10421888626100    1.29383981298119
H         3.19617000065150   -2.34143199635660   -0.19042015367494
H         2.30635997077232   -1.01784726981233    2.30098364135281
H         0.18871717409862   -2.02463213103448    1.37535582778471
H         0.77046221823081   -1.60859074780984   -0.26872941350420
H        -1.07579678991479   -0.85883794116781    2.45042756108806
H        -1.41226100639359    0.82114618080131    2.18690141006108
H        -0.23683612953792   -1.33934354753704    4.44246428360977
H         2.11763134281257    2.95460318333725    2.72192336557897
H         0.85516564408001    2.19552290781874    1.64613775619013
H         3.28996996819057    2.25733616719343    0.93092766198062
H         3.60033794368581    0.07148087729287   -0.02158147412985
H         1.98015415871643    0.62715973397776   -0.16609153166378
H         3.17330528955844    0.21329871894781    4.23260624723526
H         4.88071144958056    0.37098545320356    4.15380483069734
H         6.54274289611318    0.39688788967824    2.86492231816335
H         6.27833819280532    1.75143435497627    3.92602985117478
H         8.47624517741540    1.82231048270473    2.99586988211827
H         7.60918690765415    3.35163381164894    2.54709556941988
H         7.23349496224789    2.58697841777427    0.48333307300782
H         8.22380080033839    1.27754466807762    0.67766448145090
