39
 energy: -54.527607949733 gnorm: 0.106367001880 xtb: 6.4.1 (79825abcba525fcdf90b791dcacef51065a7a4e7)
C         3.17818383899491   -2.12616043970923    0.62122849647595
C         2.28283733303910   -0.98989696798164    1.12600578750802
C         0.82068501614240   -1.14501690103028    0.68063703548355
O        -0.05191351999985   -0.05332664758325    0.95523252679322
C        -0.60335606560296    0.07402928327434    2.25027200701862
C         0.40885682313756    0.02021559674925    3.37917136188596
N         0.33870628071925   -0.84393623005731    4.33958468557912
O         1.41980444464910    0.89283130872556    3.36144786239430
C         1.69140946030845    1.87179082958421    2.34048395689606
C         3.01793263030460    1.54324744204165    1.63355920116057
C         2.84324210811042    0.36703694343704    0.64093018503572
C         4.18902286200737    1.34371530556064    2.63329276183095
N         3.99945815852579    0.53208518532068    3.72780215734334
N         5.21327311051170    2.05939478761115    2.31255237223809
C         6.44875046888413    1.86760613025522    3.08668896466115
C         7.62700992298202    2.37306930326027    2.23809708638089
N         7.74225139003038    1.57458233804022    1.01571019289152
H         2.67429523393678   -3.01765505102314    1.00789059997148
H         4.12060128545891   -2.07942115045280    1.17768841232546
H         3.34588859841748   -2.17029860278299   -0.45295201260930
H         2.25194212987269   -1.08927362738972    2.22348802537999
H         0.33657351837986   -2.07103818118377    0.98256218193092
H         0.93312467868756   -1.25124746712250   -0.40577122823404
H        -1.44332089150278   -0.61979601867945    2.37572844718743
H        -1.07740852437232    1.05076846991581    2.14934483325386
H        -0.50561682323750   -1.42540157673505    4.22690722591940
H         1.83250205602178    2.74184217855819    2.99793343531021
H         0.82071506520822    1.94919050181477    1.68723104597146
H         3.32615340135742    2.45088899080903    1.08423910481516
H         3.80884825840531    0.15931178033092    0.15981040953286
H         2.18493758744801    0.60108882539425   -0.20856891778652
H         3.16954238524680   -0.05963753617987    3.74455517542428
H         4.87750834939014    0.21801300337130    4.12257554555172
H         6.58882648102605    0.84037065690714    3.44418307472078
H         6.31259010861791    2.53011637957615    3.95015746264531
H         8.62234737976346    2.35213019690930    2.69577758127027
H         7.29217172853519    3.33054849558535    1.82624822241905
H         6.81231786345181    1.62090885578330    0.59209201348659
H         7.88565654685855    0.60721748414421    1.29509780321193
