39
 energy: -54.527581621688 gnorm: 0.099696712124 xtb: 6.4.1 (79825abcba525fcdf90b791dcacef51065a7a4e7)
C         2.95472969801655   -2.05765410225391    0.19997684432185
C         2.19225913448992   -0.94755379783567    0.93063143391336
C         0.72461455029515   -0.99076920699525    0.47846249238279
O        -0.01400633270350   -0.01453700020969    1.20649298083725
C        -0.40302283621788   -0.42613289917660    2.50136388588419
C         0.58893482146919   -0.27388572806980    3.63922390511830
N         0.70893112413371   -1.02118547725394    4.68861287826628
O         1.50331771090167    0.69652050202217    3.56174427291336
C         1.61592263733045    1.72905196676804    2.56389797483111
C         2.88200488580552    1.55840924199526    1.70642266525826
C         2.78685452673039    0.44786281517992    0.63081429952742
C         4.23076389059586    1.45929871587101    2.46915386059105
N         4.36372875003863    0.40146747883014    3.33860338823289
N         5.03968047984628    2.42906095438518    2.20576203180776
C         6.24832860431338    2.54387797108380    3.03549778704624
C         7.36763886681849    1.68477093914194    2.42478003089570
N         7.70387538671466    1.86672805267593    1.01094540323366
H         2.64580027575260   -3.05293143704191    0.53487920141684
H         4.04011104301264   -2.03707702986867    0.34662869298197
H         2.78366539471381   -1.91604846467321   -0.86520937692749
H         2.18259795036926   -1.32167480545690    1.96756809565319
H         0.19363341044150   -1.93789912558059    0.54204005113732
H         0.63825052318298   -0.65591899354314   -0.56299183868481
H        -0.70417994745086   -1.46888586656928    2.34437842969989
H        -1.30505888069881    0.15142540833620    2.70554236465952
H        -0.13939538477290   -1.56052021688935    4.91913367178518
H         1.79541166407111    2.61868921926512    3.18475669008413
H         0.75907142063216    1.83088642310435    1.89586013780953
H         3.04063386593522    2.49494965083537    1.14224652401839
H         3.80150293090833    0.31305397410592    0.23164463138092
H         2.10411104490233    0.83214627807494   -0.14118403577699
H         3.64506881591308   -0.31781841949147    3.41162618594010
H         5.15504042979470    0.33532858186183    3.96702280827165
H         6.11874183370778    2.28691554209313    4.09371025405199
H         6.49616701373036    3.61177831284138    3.00082351346185
H         7.04664871340236    0.64958395598166    2.58590038070004
H         8.32214299111440    1.90574265730663    2.91324280507611
H         8.46758295921964    2.53541963201052    0.88454450789218
H         6.91582250611941    2.18049177818625    0.44974827471271
