39
 energy: -54.519456490439 gnorm: 0.119084763784 xtb: 6.4.1 (79825abcba525fcdf90b791dcacef51065a7a4e7)
C         2.69763712443727   -0.46169140435360   -1.15993880236749
C         2.22560677545550    0.03254153895464    0.21136033402289
C         0.82206501088902   -0.57031767578572    0.37548289470263
O        -0.10008394774913   -0.34767110615366    1.43788032982330
C         0.27449945970557   -1.03525949640251    2.61446231256639
C         1.64822510844488   -0.74368374421477    3.18869750484013
N         2.45180582621412   -1.66257554779484    3.61761374178441
O         2.01454838830280    0.50366335447989    3.49483456405015
C         1.50134859697350    1.57688058361078    2.68284374067081
C         2.57881793505952    2.08580873780554    1.70949946935233
C         2.35949777649460    1.57196980068586    0.26479585500381
C         4.01446942381044    1.83233194734234    2.24371564499419
N         4.44501923164184    2.53520582353483    3.34518022721698
N         4.75925811330840    0.98744536942885    1.61473507622130
C         6.05134309328233    0.51116307148822    2.13062867498774
C         6.30845853391595    0.32711536044563    3.63525972226153
N         6.65474466846839    1.45231962495246    4.50651915644947
H         2.54192731058316   -1.53818350734432   -1.28279301002217
H         3.78033816346261   -0.29633283346900   -1.17988499413248
H         2.28690408516889   -0.00201279506615   -2.05656067363432
H         2.80084046417944   -0.37875414974017    1.05707871074222
H         0.97889113568878   -1.64364102572573    0.29535354329023
H         0.23455436651699   -0.16145345268667   -0.45630543301138
H         0.11687268131931   -2.11079077907790    2.46934149845902
H        -0.50504346938363   -0.81308792621896    3.34376615361835
H         2.08888778920000   -2.62739879180047    3.58465510186425
H         1.33731498103135    2.44885577424035    3.33237321531261
H         0.57688612270188    1.28785563282597    2.18017831652623
H         2.58903338004873    3.18801574792075    1.63465859865385
H         3.27079394314416    1.75715108563387   -0.32024125900111
H         1.50882848499786    2.12026808831427   -0.16592982101652
H         4.00630573665159    3.41283855865028    3.62170849204557
H         5.37943008544622    2.29145510839270    3.65001041466334
H         6.80245716620704    1.11536729060311    1.60775110956933
H         6.17393242790763   -0.50309609310269    1.73152027346478
H         7.01171518018088   -0.51070276595374    3.69927067912890
H         5.44582176211279   -0.20906247231195    4.04376140862636
H         7.61718995113948    1.67258031194372    4.23901368580105
H         6.65004616269667    1.15530646274657    5.47923614411859
