39
 energy: -54.515345412177 gnorm: 0.113458984222 xtb: 6.4.1 (79825abcba525fcdf90b791dcacef51065a7a4e7)
C         2.74333849396982   -2.62974839017470    0.44361172192444
C         2.07866735390908   -1.45824812933761    1.17391275407926
C         0.56728455348441   -1.41905066695809    0.90098319998848
O         0.12721443038826   -0.09487323215635    1.18648439701683
C        -0.33457641368866    0.04861371034182    2.51448906746505
C         0.69180465671404    0.67396025696254    3.44043087126843
N         0.78952882596262    0.39857897322442    4.70086269707340
O         1.55701462214124    1.62371777152662    3.07552019981007
C         1.92115639799048    1.90061891063658    1.70978784714409
C         3.10903337157466    1.06532484814711    1.20128097855117
C         2.67550326650840   -0.22362559454434    0.45968897506170
C         4.12323759761228    0.92779997996602    2.36884652157111
N         3.84684387600818    0.25698124531194    3.53770826452790
N         5.27717519168258    1.41344710187984    2.05782403239551
C         6.48085556430348    1.38043778252296    2.90194403878263
C         7.25276633295998    2.70878316792136    2.84237200802865
N         7.90793837727263    2.87471375499006    1.54302279592917
H         2.28942550993407   -3.58614714651659    0.72188923485024
H         3.82201841501693   -2.59976454267883    0.63211489284676
H         2.63461187538479   -2.43159100242320   -0.62074207815957
H         2.32686704502859   -1.58870273044745    2.24006284495242
H         0.13782526194208   -2.13195400254295    1.60124866103086
H         0.18421942320819   -1.70638971100975   -0.08639105059176
H        -0.62822140244774   -0.91419350334445    2.94974609994960
H        -1.28896157114404    0.57575313717578    2.50018975502776
H         0.13947196594347   -0.38194191509252    4.87944850030673
H         2.31471798523358    2.92693759986356    1.74004546404669
H         1.05708861059693    1.84428439097821    1.04567031667199
H         3.61868210984055    1.74124534525734    0.49138278688916
H         3.60313123504605   -0.60474177688397    0.01104875785488
H         2.01153019315504    0.22844391908153   -0.29168761786738
H         2.87755798472688    0.02282957680843    3.74944982235479
H         4.29040106545973    0.67670593257820    4.34551251459909
H         7.13596118653063    0.57214140278766    2.55534682115861
H         6.30609479503913    1.04644113417877    3.93196453553757
H         7.97201609061185    2.65854857488332    3.66745552199288
H         6.52674142669247    3.49078853760819    3.08703083333267
H         7.14377403190244    3.07744732323033    0.89392586557300
H         8.36987057097181    1.99721232925334    1.31713093715672
