39
 energy: -54.522254438449 gnorm: 0.114768751262 xtb: 6.4.1 (79825abcba525fcdf90b791dcacef51065a7a4e7)
C         3.22410482474202   -2.01368385822689    0.17925721860384
C         2.31657633452793   -1.05781543399362    0.96044077735871
C         0.81424936456544   -1.13196593905774    0.64767840963488
O        -0.02125025304894   -0.08027815160493    1.12150505213602
C        -0.49716825727092   -0.12792602267422    2.45141760608633
C         0.59954043744085   -0.13769135936029    3.49975879915471
N         0.87785210858211   -1.09100702626278    4.32909894052072
O         1.39219773374885    0.93035272329342    3.62126447852619
C         1.69074121264756    1.87064358729908    2.57187266418613
C         2.89015113374034    1.48332009386580    1.68940827115185
C         2.79727457294976    0.37072235441047    0.61572280833989
C         4.16166601960199    1.29574330487263    2.56049806646145
N         4.15740290733961    0.17463149748954    3.35781806191452
N         4.94966930437610    2.31088939176062    2.44785119093307
C         6.24464094438109    2.33517044418642    3.14422287503100
C         7.27922099018219    1.58703462521874    2.28758208039538
N         7.70512202787735    2.28179261359876    1.07061396936376
H         2.77492106396573   -3.00986726628757    0.24271204528426
H         4.22189855007884   -1.87748578260834    0.61034956455548
H         3.29466101432447   -1.57667890410978   -0.81471729329894
H         2.28906719656100   -1.22671702181911    2.04948301591116
H         0.31202795995427   -2.00854239722822    1.05069891373122
H         0.72698457005121   -1.05854497638672   -0.44374485502661
H        -1.06187155611514   -1.06785482080643    2.46924505113224
H        -1.23545128254927    0.67315435464060    2.49767621445681
H         0.24850349335354   -1.90806271097072    4.32462854056562
H         1.89342388188290    2.79520790332752    3.13154831356766
H         0.84446028302073    2.02258061627195    1.89988863990472
H         3.04788750395069    2.43254305878126    1.14658160222956
H         3.82641478363633    0.34182708992028    0.23224306693092
H         2.04886566958059    0.72285147700185   -0.10931722657763
H         3.24689822161064   -0.08817405325421    3.73343900300852
H         4.96551954725551    0.09749149535967    3.96317449546952
H         6.22884331879573    1.84505093866898    4.12512518747321
H         6.43490734794324    3.39144963981737    3.37029868443298
H         6.85765494200399    0.58585979339233    2.14427277765294
H         8.16297907686819    1.39341580132887    2.90401204265094
H         7.35375569581315    3.23893764840645    0.98821279879391
H         7.43946419241066    1.84788471312632    0.18995110392211
