39
 energy: -54.525867603367 gnorm: 0.127174403914 xtb: 6.4.1 (79825abcba525fcdf90b791dcacef51065a7a4e7)
C         3.69469544607154   -1.49952179740636    0.39687466148090
C         2.54769419090067   -0.65042521123333    0.95451547398466
C         1.13612755852388   -1.17093238564267    0.64329711920973
O         0.20127573335345   -0.15918186443674    1.00527980695840
C        -0.42674082324132   -0.29559605220069    2.26401808833282
C         0.55491611570057   -0.18775997436487    3.41580177584142
N         0.79287736785048   -1.06859785684768    4.33317428397735
O         1.23297814485291    0.92932907172567    3.69172091185607
C         1.48285465163072    1.85867798797623    2.62010034163534
C         2.83611060910490    1.75189452550916    1.89577810997061
C         2.74154869303523    0.85082659608028    0.63942029764293
C         4.09857382790254    1.37233410737096    2.71605435688136
N         4.00217973593127    0.32997511991734    3.60870488963100
N         5.04335773198326    2.22403010995095    2.50121164298298
C         6.37038243714319    1.93652709076587    3.06585498517217
C         7.16890821738248    1.15528594318467    2.00948602498886
N         6.88480568811190    1.56389681584930    0.63201927344916
H         3.99330632906542   -2.38856969773468    0.96132068802233
H         4.58336563302241   -0.86327978977235    0.47065984548765
H         3.65984787349599   -1.66983925142516   -0.67723634044882
H         2.60574418476895   -0.73448510233478    2.05217737637664
H         1.00649661981429   -2.11472221018711    1.16817305285014
H         1.04086124646944   -1.26688888258858   -0.44570573361664
H        -0.88475317026926   -1.28036375513564    2.41610705912741
H        -1.16855350349193    0.47799037007460    2.46454108038315
H         0.23348252763388   -1.93282345441870    4.39539319005756
H         1.54421943450973    2.74232752181386    3.27166320362488
H         0.62038810775158    2.04096619677005    1.97685756292335
H         2.99654563384155    2.78789726024178    1.54717412052724
H         3.67560414737810    0.98643741400859    0.07712913772958
H         1.93968218620650    1.28916821497399    0.02732504460435
H         3.07321153059714    0.07645612706746    3.94325358718391
H         4.69628979797248    0.26122922166225    4.34283343413169
H         6.37019355321883    1.41952184233947    4.03298557746288
H         6.83654398601375    2.90865765564142    3.26757979025595
H         7.04673862224418    0.06645293041509    1.99835975040833
H         8.24991335194417    1.31008317261757    2.08674029034107
H         6.98548630470720    2.57330062417094    0.50032934874341
H         5.89543942404683    1.44705082463615    0.42727883875633
