39
 energy: -54.522629575126 gnorm: 0.101347768952 xtb: 6.4.1 (79825abcba525fcdf90b791dcacef51065a7a4e7)
C         3.27887609870419   -1.51716125294741    0.11838178772393
C         2.27326907170623   -0.64540442139137    0.87754890358898
C         0.85291578552508   -1.05720746320910    0.46123203902269
O        -0.20069928391942   -0.36974638907155    1.12899776443028
C        -0.45421425296777   -0.60446896546268    2.49942512112837
C         0.57723789868099   -0.31902496905397    3.57483796585102
N         0.75050282547148   -1.21485535986385    4.49219308643137
O         1.38305750578872    0.73840697633890    3.70243045236967
C         1.47235421821342    1.73575495371057    2.66714236431912
C         2.76122982661700    1.73834023298820    1.82682095316865
C         2.59785176025652    0.83637047108738    0.57819832680390
C         4.03575537860613    1.46002098641493    2.66875658444680
N         3.91728196289515    1.67898803656496    4.02177045987814
N         5.19216548729943    1.28813044891990    2.12347740689331
C         6.44666947476878    1.38223745453712    2.88494851684270
C         7.70433402380721    1.33839799387831    2.00162836055560
N         7.89572395484155    2.24873186183075    0.87036628808159
H         3.10394388086189   -2.59572372417688    0.18377035058753
H         4.28591999971100   -1.23905994029775    0.44778289324457
H         3.19470128177333   -1.31011418734000   -0.94650456800060
H         2.35025750518182   -0.93440318003543    1.93860969743654
H         0.86603375688002   -2.12516118877630    0.66700112861654
H         0.45489523533451   -0.97693609623055   -0.55825149420186
H        -0.70678391377886   -1.66151836091352    2.64615251843432
H        -1.32388985050883    0.01059696679450    2.73242667967402
H         0.05748718290952   -1.97846984264093    4.50956845833842
H         1.22471019736159    2.72465201667179    3.07932110553341
H         0.68825085236784    1.52886668289760    1.93692460607656
H         2.86186025044595    2.77688816255401    1.46369905551566
H         3.61560831428689    0.93427501452467    0.17619393029698
H         1.92552355489632    1.22622022658048   -0.20012410617421
H         2.96419621734813    1.57949852925992    4.36948592076627
H         4.58368615656034    1.17005721613436    4.58953306540481
H         6.50038853767758    0.54378725750330    3.58975456825210
H         6.37221459975983    2.28978632024009    3.49638031237107
H         7.88755390211349    0.33053237405646    1.61272747583739
H         8.52942386060922    1.45082486004893    2.71232482346083
H         7.49763184603243    3.15454463142682    1.12998286890453
H         7.43681054324130    1.83324096913888    0.06340716094044
