39
 energy: -54.529243002575 gnorm: 0.101989088787 xtb: 6.4.1 (79825abcba525fcdf90b791dcacef51065a7a4e7)
C         3.54926451194175   -1.29809923887749   -0.10971447888351
C         2.54179348392554   -0.61003707266635    0.81716887914618
C         1.11839076872476   -1.02829045991689    0.41805265127873
O         0.09974560356010   -0.28554432033220    1.08085633031303
C        -0.12661569186086   -0.56664436340603    2.44730391708481
C         0.95727861647158   -0.39998171290566    3.49577008488154
N         1.57768404033990   -1.31034313265725    4.17430706538099
O         1.25722299370262    0.87612981031183    3.75142643017010
C         1.23337025764718    1.88533022551935    2.72407843807456
C         2.51917727909824    1.84015228025859    1.88027375314527
C         2.61334041087848    0.92369722407939    0.63506544706857
C         3.76424575425187    1.70471569607574    2.79798505189081
N         3.66715315961305    2.01759529219936    4.13413940076207
N         4.87371044456506    1.35905827632037    2.23783405395279
C         6.11798875202129    1.31611454314873    3.02039522146835
C         7.27142105406309    0.77567338171873    2.15934132843339
N         7.48254216281684    1.41268616628084    0.85752170454568
H         3.53793201992206   -2.37065564869478    0.10861617644817
H         4.48927842644589   -0.78883926417268    0.12905521866010
H         3.23097835376651   -0.95766867978244   -1.09294273089932
H         2.67876365739686   -1.01516392781754    1.83324412553690
H         0.93241141038592   -2.06761055801866    0.67932563834010
H         0.91109581118198   -0.84938436856405   -0.64460060472383
H        -0.50595902878677   -1.58868246836909    2.56651185648346
H        -0.86080457177053    0.21587520672128    2.64111126595612
H         1.19553941340193   -2.25560176984160    4.01896467965086
H         1.28114650097227    2.85609313169715    3.23834792332228
H         0.29992320714930    1.92077403194362    2.15993382526031
H         2.63932206154661    2.88025184730607    1.52767777155406
H         3.57764643235202    1.18691030431166    0.17915536466381
H         1.79898401092776    1.17129911366738   -0.06157708449298
H         2.77303947888801    1.75553717082514    4.54773691986716
H         4.39085842827468    1.75850513591301    4.79336809557997
H         5.96800589959427    0.69005701124937    3.90819765276031
H         6.35868793590361    2.36272991271806    3.24332456325333
H         7.08832707858488   -0.27878569038672    1.92439623797005
H         8.20188295275879    0.96106619993363    2.70557631734259
H         7.44022878630737    2.42847514109669    0.97046951507179
H         6.74586101478915    1.07255617542813    0.24430908947439
