39
 energy: -54.528379083851 gnorm: 0.107296064080 xtb: 6.4.1 (79825abcba525fcdf90b791dcacef51065a7a4e7)
C         3.57972982146791   -1.54688313318740    0.35100407658211
C         2.59379989707327   -0.62042381182907    1.07013930811838
C         1.19703526949527   -1.07344057039092    0.61833256680756
O         0.11488791781026   -0.29871015940601    1.12564746922608
C        -0.31280059948669   -0.49713746176021    2.45799307525292
C         0.77705083394500   -0.19201548846007    3.46844299406325
N         1.27933079646497   -1.05579379694516    4.29043758578733
O         1.28661385139191    1.03052074073015    3.64030951426165
C         1.39335291759554    1.98781603971963    2.56947301965074
C         2.72744716981222    1.89209418695278    1.80896204716594
C         2.80456798102529    0.85552513208992    0.66053822201621
C         3.86969511754852    1.58526715612372    2.81487426505234
N         3.74825944771793    2.02451275126177    4.11292884771674
N         4.82931252457383    0.95203277566842    2.22980272599064
C         6.18783343802026    0.76391573121783    2.76037554965960
C         7.28676205767258    0.88112375778983    1.69149076818161
N         6.98937449682872    1.96780127072736    0.75565725840916
H         3.38080198710143   -2.62326460142241    0.34885943667633
H         4.59926781816488   -1.51950986555181    0.75072375520322
H         3.61423669640282   -1.25815534604241   -0.69751028981494
H         2.70833185882229   -0.71247847348172    2.16270778500866
H         1.08597781872217   -2.12304329373147    0.88108439457503
H         1.06703572054868   -0.86449351151416   -0.45108399170896
H        -0.74232390200009   -1.48454672092712    2.66585473270163
H        -1.01530335019769    0.29421103433946    2.72103093966737
H         0.86649898174345   -1.99723812143732    4.20717811726478
H         1.32606762075059    2.98025863906399    3.03815911917430
H         0.51250199335772    2.00689579390949    1.92559693472433
H         3.00024808899238    2.85724763008218    1.34568645113883
H         3.83636271094085    0.93853608511674    0.29239415960858
H         2.14829249247966    1.20400417783041   -0.15042336603999
H         2.80176349294062    2.19792326761323    4.44945644493794
H         4.43548092987837    1.79652877418586    4.82089030299117
H         6.30820005929720   -0.28467988528718    3.05802491961341
H         6.35768909761459    1.46194562960675    3.58919436084630
H         7.31535740673589   -0.07049492957051    1.14907883131316
H         8.28075029871118    1.10081358716753    2.09426396972960
H         7.11304947622266    2.86292914859798    1.23505839719707
H         6.00192633226406    1.84706300586414    0.54403110517732
