39
 energy: -54.527317934905 gnorm: 0.116870759734 xtb: 6.4.1 (79825abcba525fcdf90b791dcacef51065a7a4e7)
C         3.77391545506421   -0.94239399279574    0.16367037866998
C         2.61806703195076   -0.30011326913898    0.93764070704741
C         1.33647202492017   -1.06392224048580    0.57101413781835
O         0.17870637111029   -0.51973686952060    1.19716067832258
C         0.01254899790533   -0.85480172820969    2.56008362281695
C         1.14379060228753   -0.37465903097619    3.44982518450285
N         1.73663180780810   -1.18649026056686    4.26440643329971
O         1.45990444026117    0.89363003127840    3.72423785911149
C         1.14619749761251    1.87351204842598    2.71631051579307
C         2.35440926644724    2.12310164858343    1.79692133094775
C         2.44469492654656    1.19011421529353    0.56376145416080
C         3.64676858159811    1.88578493956922    2.62409774533507
N         3.69806546020854    2.54048322626669    3.83296823338328
N         4.61973538354331    1.22849721554372    2.08980517208327
C         5.84487531599826    1.17112598227442    2.90110989534435
C         6.80327311984527    0.25572074808670    2.12174897434048
N         7.45581928815041    0.79243180693863    0.92541437158677
H         4.19087403758994   -1.88140671301989    0.54126089647706
H         4.61943616765077   -0.24700780349176    0.20260132368098
H         3.62616798820015   -1.16213214722459   -0.89170759330032
H         2.83005267724509   -0.46287554739645    2.00715837371766
H         1.51050444169621   -2.13630499830617    0.62341735607682
H         1.10979175561024   -0.93978918381373   -0.49548366936024
H        -0.05906462211546   -1.93931494055981    2.70629022850288
H        -0.95650670647595   -0.44235300069657    2.84248150121011
H         1.70789969070192   -2.16313202074028    3.93421708910839
H         0.85775900131754    2.77054333680359    3.28312123397883
H         0.23679212250447    1.57061994071664    2.19470045988996
H         2.39508881284049    3.17515261376366    1.46210833604584
H         3.31487932277606    1.47342858736405   -0.04413106797096
H         1.53306739751476    1.28783678282802   -0.04383990976771
H         2.88310013246313    2.73065466819725    4.41507043292601
H         4.54920786989044    2.47909809917346    4.37817274992720
H         5.63458040923680    0.72899988522740    3.88240323400734
H         6.20057602188310    2.20134644133048    3.02423639463733
H         6.24557779868987   -0.63044435201223    1.79880334419991
H         7.53363408882581   -0.05548617537477    2.87555638500628
H         7.86544398411322    1.71563649878025    1.08751180032820
H         6.84093839455660    0.98219469488511    0.13780484383717
