39
 energy: -54.516847104033 gnorm: 0.133304202422 xtb: 6.4.1 (79825abcba525fcdf90b791dcacef51065a7a4e7)
C         3.10099254308875   -2.06011585420247    0.24321301241965
C         2.30391281610951   -1.00213960725336    1.01320674415278
C         0.79921979086574   -1.11882697374771    0.72582565217132
O        -0.03189408672711   -0.03829406425016    1.13852029092715
C        -0.55536393303016   -0.06215371313944    2.45109246711338
C         0.47660461342806   -0.17471850277050    3.55755290751695
N         0.64618187863613   -1.06070790419587    4.48509782518281
O         1.54611922046127    0.61837340697327    3.45300078094638
C         1.73452444668298    1.67316055627976    2.49049058652566
C         3.00242532580960    1.51840500008938    1.63268804444100
C         2.88253372580538    0.37066960297622    0.59942632263726
C         4.21592320366009    1.39563794646497    2.59346053820537
N         4.43776571605851    0.24921904186031    3.32087972094076
N         5.06683641700965    2.35561562157824    2.45726334350658
C         6.35259091500969    2.39114059346255    3.17003820555760
C         7.37202952522282    1.70851041934812    2.24340046657142
N         7.36704829883858    2.16099260323947    0.85044432798861
H         2.49194277070365   -2.96379212379274    0.34617673626596
H         4.13908734985515   -2.12942930030560    0.58605067751753
H         2.98026015427984   -1.81067875041516   -0.80899498034651
H         2.53506492492811   -1.14130139220756    2.08208475806170
H         0.34832269038587   -1.97685361463878    1.21930335771614
H         0.58394999203607   -1.19599478740814   -0.34744717921194
H        -1.32334370391008   -0.84302112978966    2.39517345004852
H        -1.17446473821104    0.81997106324438    2.61692836316777
H         0.05268838919357   -1.90364323692620    4.51518376211805
H         1.74992321549983    2.55378319645156    3.14882404132808
H         0.89791802998488    1.86949881212259    1.81789872664921
H         3.19425878549387    2.47040027838698    1.10593315048375
H         3.93069128298153    0.23282464376707    0.30045183677061
H         2.34240818369429    0.91102064655798   -0.19182523029571
H         3.52639526107235    0.09254347039766    3.74987076274677
H         5.06230765099791    0.30593795273986    4.11598338864627
H         6.39957340484238    1.90736783986968    4.15309090660617
H         6.54245861906765    3.46383154828875    3.29779458053987
H         7.03474234638994    0.66648371416194    2.21139670699941
H         8.37909377886055    1.67001370237640    2.67100085969589
H         7.30805109103600    3.18115769000116    0.80399654824501
H         6.45680700835750    1.86675513683933    0.50504261595857
