39
 energy: -54.528541243269 gnorm: 0.094377606332 xtb: 6.4.1 (79825abcba525fcdf90b791dcacef51065a7a4e7)
C         3.26810333157558   -1.60004500876918    0.09028599221273
C         2.33758278401727   -0.74010831379944    0.95178501361185
C         0.91457281936188   -1.10088493666665    0.49880840538395
O        -0.08642272825667   -0.28590758055192    1.10083691951450
C        -0.40297706889183   -0.63506307293456    2.43324806163962
C         0.67442402317419   -0.42772670306099    3.48115220165008
N         0.84645659312614   -1.17008896873560    4.52679854600165
O         1.39760822638115    0.69228181177955    3.56098269003004
C         1.47992427034938    1.84202074088784    2.69737238107554
C         2.72190676871912    1.75644367185646    1.79321358123076
C         2.50805603591366    0.76156825103208    0.62539893074392
C         3.98691716108445    1.51743908304131    2.66117563167537
N         3.95047367656621    1.87043901293276    3.99034529061011
N         5.08670714599974    1.32090393484915    2.01619809346815
C         6.32147540076490    1.31907889940865    2.81483360839339
C         7.61509055188069    1.16261271175047    1.99876087709684
N         7.76948159787366    2.22851614053565    1.00623630398515
H         3.02429576167043   -2.66691687841874    0.11300672775841
H         4.32551194317316   -1.46795293150766    0.34410000977846
H         3.11626676469253   -1.32540524936926   -0.95156596286056
H         2.56342549241422   -1.07019678740859    1.97907960118915
H         0.79711992518548   -2.17273988889240    0.64153169138049
H         0.77330148295685   -0.88542646169264   -0.56788301442922
H        -0.80517256561219   -1.65479437038795    2.46581546247352
H        -1.14805820118982    0.08800113513169    2.76636024572764
H         0.41344829188352   -2.10521870862092    4.56822117062938
H         1.57939364951165    2.76592237773943    3.28529064781026
H         0.54022051260498    2.00759171518739    2.16786137792695
H         2.88625613146674    2.75812466612986    1.35710548875924
H         3.45056981642697    0.94499707589538    0.09150486434961
H         1.66568128224071    1.07622294349895   -0.00799751471467
H         3.11061971233766    1.81344487088239    4.56530060885063
H         4.79710983423777    1.65867320549457    4.50398131026592
H         6.26729336375529    0.45535681473906    3.48839467959240
H         6.34776158524280    2.21985009720854    3.44009963575266
H         7.75399581583759    0.20678835964682    1.48135226858622
H         8.39133247651691    1.21659135973497    2.76885001841581
H         7.85468641226432    3.10889196658830    1.52009758467544
H         6.87312452992664    2.21748157418880    0.52577872916111
