39
 energy: -54.526837283218 gnorm: 0.104045768103 xtb: 6.4.1 (79825abcba525fcdf90b791dcacef51065a7a4e7)
C         3.33738473645570   -1.90709065433049    1.15785312031803
C         2.31235645117005   -0.76850789967586    1.17990981006731
C         0.95993306240515   -1.15202297566715    0.56009362505750
O         0.00711400299359   -0.13953461888541    0.86932118038362
C        -0.44955765535743   -0.11405452665728    2.20657113373401
C         0.57020397377541    0.03386239014919    3.32016505349562
N         0.65227344191905   -0.75658123940727    4.34121192226810
O         1.25836322875519    1.17628225608354    3.39158703820895
C         1.53812752976847    1.99237373141468    2.23823324486756
C         2.91455669395373    1.73244635789918    1.60165832079746
C         2.91028239806789    0.53989431800446    0.61317377605277
C         4.00791957846298    1.46980982347837    2.67231806671620
N         3.86986300393351    0.64845930018921    3.76728508639691
N         5.15006360699748    1.92990877155430    2.28764145862685
C         6.38568068331970    1.55336477561770    2.99044991172048
C         7.57320076803612    1.85928495768256    2.06303122243113
N         7.40434346796947    1.32207503726967    0.71100146762461
H         2.99897143459099   -2.81734570444381    1.66291364167830
H         4.27090721848750   -1.63684463308665    1.66330906131162
H         3.58711760990423   -2.19346535444465    0.13826503766598
H         2.19474936365534   -0.72963381944368    2.27533433593699
H         0.58812526895704   -2.12670432054825    0.86797898931105
H         1.09274973832583   -1.32094655979680   -0.51602675872965
H        -0.91027467338358   -1.07580441546546    2.46240462063332
H        -1.28426384658235    0.58391362637507    2.27754646929807
H         0.09624789585363   -1.62520802087766    4.34287508905264
H         1.61653786419923    3.03827553014230    2.56850213722867
H         0.70445098925425    1.84831393713219    1.54898073921566
H         3.36074542349483    2.56855786077450    1.03385643325627
H         3.97798221012999    0.33564768446859    0.45404595421723
H         2.34089369396180    0.83541432312334   -0.28027924294325
H         2.95449915058797    0.56109576431207    4.20734561485372
H         4.57671973671174    0.92226527266066    4.43873379048127
H         6.40039903201911    0.49269097098518    3.26864138765656
H         6.43545734643417    2.12855776517580    3.92303375774575
H         8.52298951898577    1.52851454434234    2.49788613698298
H         7.72902112633484    2.94130007082794    2.00416004043992
H         6.58279274323281    1.73555843676320    0.26327302728127
H         7.03643110609722    0.39047662834670    0.88758610697038
