39
 energy: -54.523737236299 gnorm: 0.116621464056 xtb: 6.4.1 (79825abcba525fcdf90b791dcacef51065a7a4e7)
C         3.44746140183012   -1.73693256985555    0.41541228970281
C         2.44790846469861   -0.78505087674719    1.08051028357069
C         1.07730957932821   -1.19126869917897    0.51770417041849
O         0.14648773650082   -0.20166666264597    0.94534540518545
C        -0.48860000348450   -0.28660938946968    2.20506123694899
C         0.49965663650088   -0.26195030267861    3.35598493010531
N         0.55939229374187   -1.26269519482483    4.17391802544252
O         1.27128806046120    0.77494082979140    3.69248028002779
C         1.58993367876947    1.90434301541224    2.85736712319359
C         2.81396324298185    1.68056267658589    1.95236929281374
C         2.76475810428991    0.69383305511110    0.75937147129105
C         4.05253960192754    1.46650775190926    2.86387447575709
N         3.90833070237434    0.60927383079411    3.93016844094729
N         5.06148562809739    2.09160622281947    2.35846386328162
C         6.42633381500802    2.12221745909606    2.90502311119807
C         7.37683486589133    1.35427105402943    1.97190865183287
N         7.38380585274301    1.86450000132847    0.59906140329167
H         3.06375989951537   -2.76119804909332    0.45815964043557
H         4.48146917633456   -1.55409172920314    0.72746996747799
H         3.34928954143856   -1.57244983322650   -0.65568273532816
H         2.50023409661941   -0.93657010455809    2.17119880915604
H         0.65095082670650   -2.11942742352516    0.89157280429651
H         0.94526596022029   -1.23747797911012   -0.57070738532629
H        -1.05071598278122   -1.22802529678844    2.22592989171771
H        -1.17779418846868    0.55819084537523    2.22104269961102
H         0.02901121854882   -2.12918429020647    3.99623228707899
H         1.86306640548120    2.68057194325437    3.58675279299440
H         0.78776109859816    2.33380091549817    2.25493549549622
H         3.04544419876551    2.63856802175278    1.45316179016283
H         3.77200828962008    0.75739707686028    0.32528863429596
H         2.02586732662734    1.14599745723927    0.08159448960704
H         3.03856630610509    0.09493448417515    4.06485902809117
H         4.64709010877612    0.31017972091241    4.55485774978011
H         6.44310185179103    1.81943858874022    3.95891106928465
H         6.65711756428919    3.18216226779031    2.74287138201041
H         7.12893300423471    0.28697381083947    1.97718057516411
H         8.36996318950296    1.48338938474026    2.41409310730876
H         8.00429019839998    2.67579721205712    0.54275080655948
H         6.41812998710870    2.09239224366555    0.37556088036195
