39
 energy: -54.524586991633 gnorm: 0.108894187918 xtb: 6.4.1 (79825abcba525fcdf90b791dcacef51065a7a4e7)
C         3.33355528543002   -1.50952809110319   -0.03760909298346
C         2.38599908103021   -0.61052581294452    0.76331056139069
C         0.90791135716043   -0.87594266629060    0.43909537438835
O         0.05351095349206   -0.07132281061559    1.24606831970182
C        -0.21746630510461   -0.35546886501318    2.60373838350579
C         0.91661192060536   -0.09762461698912    3.57804197759481
N         1.42095095807604   -0.97169283680000    4.38780743599834
O         1.45503352601359    1.11611886441839    3.72197360265945
C         1.47596334658959    2.06868601726344    2.64184581193077
C         2.64183782542110    1.93923195414777    1.64619257654478
C         2.71816278097216    0.87963089362185    0.51893025074460
C         4.05022144556158    1.73702143164031    2.26772220590186
N         4.17448147800767    0.60380037712972    3.03778618240040
N         4.93662723553875    2.54711992812775    1.79635686373841
C         6.30362059754921    2.27439119007156    2.26478278131529
C         6.89811598763199    0.86813045284167    2.08339232866927
N         6.79230369395201    0.14985404657195    3.35538859698993
H         2.94222955392313   -2.53178767070136   -0.04245368583869
H         4.28289578758496   -1.59421218096566    0.50235762592019
H         3.45466403054996   -1.24337605423316   -1.08567044242787
H         2.52962200022627   -0.94871358554779    1.80268488095562
H         0.63041817403139   -1.92760309151908    0.43231098225284
H         0.73337928922939   -0.45128780905340   -0.55760785771926
H        -0.59671028758949   -1.38065439578532    2.69229571767017
H        -1.00703674821322    0.37187889971744    2.79472321492667
H         1.00602392964723   -1.89991311126570    4.21482667625453
H         1.49359416502707    3.05719743736003    3.12316752364131
H         0.54999261859941    1.97496836737716    2.07207918550439
H         2.75394907321231    2.89658987186462    1.10631975190272
H         3.71377979523684    0.86720398390892    0.05458819122368
H         2.08544632437223    1.20028360192274   -0.32169188553830
H         3.53134350852998    0.52019990207613    3.82427276600214
H         5.06777578473862    0.18970327526188    3.27444704242798
H         6.33905308050863    2.58110134074504    3.31707051322217
H         6.92165994288077    3.03032136441359    1.76514865527165
H         7.93686681803233    0.96757477805503    1.74915577882536
H         6.22019722493827    0.32090935371614    1.42046116793877
H         7.17333711104617    0.74147636096976    4.09779781249002
H         7.20914853590737   -0.77514668312865    3.28445719853763
