39
 energy: -54.530967961416 gnorm: 0.101863794724 xtb: 6.4.1 (79825abcba525fcdf90b791dcacef51065a7a4e7)
C         2.39820320616165   -2.72366666397202    1.28546147298803
C         1.98863654467248   -1.24848087100370    1.34564619606951
C         0.52602276728524   -1.26955735115561    0.87594239539918
O        -0.06697473049089    0.02459239892266    0.92229870767154
C        -0.62008465719230    0.36701638216595    2.17699026588004
C         0.35094288030658    0.30394688040369    3.34104025317519
N         0.24743174606109   -0.21666432800646    4.52100747877088
O         1.50222048656162    0.96840599643387    3.21126596203482
C         1.92659884318284    1.66425747459268    2.02375088795516
C         3.15029718582709    1.03654963725104    1.33390139178620
C         2.92579061118417   -0.29296102677825    0.57147205114719
C         4.42002968392481    0.99294796420760    2.22643199941064
N         4.27434100470408    0.36014480475036    3.43926505619501
N         5.49771716492897    1.48444248296899    1.71537142295582
C         6.82865839360631    1.36224301330810    2.32867181710180
C         7.46133609389844    2.68004825142510    2.80512202967545
N         7.89678673107562    3.47729181370860    1.65626294953776
H         1.55874314145199   -3.39544823731774    1.49086416990788
H         3.19854464448970   -2.96459721367236    1.99354967184983
H         2.72784492403179   -2.88376223861612    0.26094081273843
H         1.97356591436501   -0.95342205218461    2.40772466990526
H        -0.12042531361676   -2.00932737022932    1.34272216473637
H         0.47085818907541   -1.55142116801787   -0.18317053059129
H        -1.42553947838354   -0.33980635840061    2.41005234523749
H        -0.99660017103986    1.37546520484939    2.00321307811070
H        -0.67924308360754   -0.66542969905830    4.58069891166324
H         2.24317287116908    2.64415092807595    2.40940097818074
H         1.12519357563093    1.83927622024404    1.30405870169702
H         3.41976563511871    1.80086168144504    0.58304876854399
H         3.95525137218835   -0.65312477531469    0.43913215501284
H         2.47979569168532   -0.14654233159457   -0.42323592672599
H         3.33716698947694    0.33634522941690    3.83965871490527
H         4.99537101930934    0.60900026776992    4.10533275578593
H         7.50356841324220    0.93437914091177    1.57762919734689
H         6.79873515084695    0.76346950240346    3.24715545615486
H         8.33979747860317    2.46341727482960    3.42316988226019
H         6.73514439961829    3.15534226345970    3.47238788984810
H         7.08350570342815    3.52865218636118    1.03794995964972
H         8.64236947415045    2.91152242311085    1.25823203899319
