39
 energy: -54.523985691680 gnorm: 0.110380463229 xtb: 6.4.1 (79825abcba525fcdf90b791dcacef51065a7a4e7)
C         3.02532848522163   -2.52049622806411    0.93936546305533
C         2.19573912919447   -1.27507130294951    1.26836158747619
C         0.72609897679200   -1.36644294787546    0.83005347052786
O        -0.10318195758997   -0.23964010938309    1.09693736621047
C        -0.40075778820022    0.05337054706891    2.44713329862168
C         0.57097755973845    0.79466544497021    3.34607539913612
N         0.63967545982081    0.63019984589833    4.62759984687878
O         1.39327429935749    1.77530431207365    2.96402449479355
C         1.90563010346794    2.01376257588847    1.63921223988556
C         3.16208268679540    1.20588669198294    1.27041614932367
C         2.89033863772533   -0.11806757485130    0.51371236163456
C         4.30834658954521    0.84268658953769    2.25270804854621
N         3.85972815935381    0.42992128361824    3.48599445922162
N         5.50738814813415    0.86535388316966    1.77737067094712
C         6.75974106693647    0.75497765846955    2.54019692771587
C         7.30275093845395    2.16446695431502    2.82721040281381
N         6.85950533189733    3.26759956583293    1.97180201166075
H         2.66152441504381   -3.42080629303996    1.44460039885796
H         4.06986681880236   -2.33090068761467    1.20950626176742
H         2.93193061955586   -2.74518768983701   -0.12116620901484
H         2.27553509625966   -1.05527926166520    2.34568307412627
H         0.27677913697417   -2.24357628411241    1.29025663954077
H         0.68978003285991   -1.45575943124465   -0.26306776564178
H        -0.61354618066948   -0.85616330682207    3.02171406737053
H        -1.26027199230208    0.72407203719752    2.42906891793446
H         0.00142858682747   -0.08564663822125    5.00692082460053
H         2.17460900114468    3.04885392299499    1.89489280770973
H         1.14395819527406    2.00667540545713    0.85777479304152
H         3.62412232899834    1.83751896306333    0.49059189823348
H         3.85238747918673   -0.50164399563766    0.14717123010876
H         2.20689518026295    0.08157192947569   -0.32464495412791
H         3.00616590308673    0.78180837333945    3.91817912290281
H         4.57132634681518    0.23484345309823    4.17955928162195
H         7.43724005540697    0.36925098400548    1.76893425999300
H         6.77794668473673    0.08105978726191    3.40537931815362
H         8.38463805564898    2.00350522914965    2.76226331250082
H         7.04676376717744    2.36695305596226    3.87218525990850
H         5.83905540023386    3.19701643518166    1.96315157958208
H         7.25327203274816    3.25127755038063    1.03419942410872
