39
 energy: -54.526536771706 gnorm: 0.107560868415 xtb: 6.4.1 (79825abcba525fcdf90b791dcacef51065a7a4e7)
C         3.68326830239213   -1.14642411003427    0.25885168621725
C         2.51735044508953   -0.47391949374477    0.99091265923690
C         1.17625790999133   -1.20170331533722    0.81172990981678
O         0.03447719704498   -0.36852672436855    0.98714963662471
C        -0.41499506567948   -0.29874938527393    2.32526079537186
C         0.66741986143418   -0.22095204098106    3.38554852926689
N         0.77493314732173   -1.01815701397499    4.39894792981939
O         1.47820376429281    0.83283974455938    3.51180114022222
C         1.47928115927754    1.97065505471858    2.62869669162264
C         2.65847519770156    2.03308725386079    1.64231403943161
C         2.51857521694023    0.99319526715095    0.50286111557764
C         4.01275343012064    1.77434014710075    2.35625592176791
N         4.09760450199432    0.95999487987468    3.46181963513554
N         4.97202249062489    2.37650264776432    1.73870974315134
C         6.33766214381145    2.18663506102387    2.25003477781501
C         6.88032151669280    0.82176859834706    1.79554949479149
N         7.16594123259023   -0.07644001256245    2.91659115809036
H         3.59070331771237   -2.21835032985304    0.46029610658552
H         4.60664596346840   -0.77167087756035    0.71373250357000
H         3.64400907723274   -0.82475860808161   -0.77986235341986
H         2.73943299970925   -0.38093769551741    2.06670596613317
H         1.10787004599735   -2.05578720088816    1.48173138152438
H         1.16014130788450   -1.52258178352759   -0.23754974517097
H        -1.07826213156848   -1.13480607608641    2.57776779947534
H        -0.94046994305189    0.64798291975125    2.45373477568773
H         0.20032071832233   -1.87407568810674    4.42900511859224
H         1.51745148557383    2.79802084024719    3.35198444079272
H         0.56914190677962    2.11644562738782    2.04454734897634
H         2.63602906517120    3.08192236326851    1.29589395504994
H         3.38430920490063    1.14808458152387   -0.15557277921389
H         1.62853119552145    1.12265663293716   -0.13027019398292
H         3.33572418470212    0.93794884497097    4.13874576347922
H         5.03810816932249    0.91272639811879    3.83421464397910
H         6.42771222495948    2.34752652328755    3.33107176320138
H         6.89145718164229    3.05674893715695    1.87687232336847
H         7.66450266208874    0.95678039927983    1.04226450381338
H         6.08016141913834    0.40997700394816    1.17211224390359
H         7.86335869482040    0.37037581540855    3.51687389992389
H         7.68146488432591   -0.89050459054297    2.59108929548264
