39
 energy: -54.523000188285 gnorm: 0.119995764855 xtb: 6.4.1 (79825abcba525fcdf90b791dcacef51065a7a4e7)
C         3.60760530380997   -1.29998643556562   -0.01494523201673
C         2.63881568610829   -0.51812484276887    0.87818371119524
C         1.25050517182052   -1.13247829137937    0.64266575624252
O         0.20257851817973   -0.32134347700858    1.16470843768168
C        -0.28087331642342   -0.57353081699169    2.46859169813804
C         0.73144069365985   -0.26035693965486    3.55442184175863
N         1.03518553211725   -1.11110886461536    4.48072281272243
O         1.19078952737395    0.98114972022051    3.73175566827106
C         1.19166174205546    1.84993699930846    2.58297099033086
C         2.56999683608696    1.83296335063742    1.89941313806244
C         2.73677561960854    1.00036538491812    0.60393416045520
C         3.83121805007028    1.54485571881223    2.75792792790075
N         3.75518219334679    1.56883708281227    4.13134428719575
N         4.89399871617428    1.24741894740248    2.08995433716488
C         6.13398730483077    1.21993558444204    2.87998448226958
C         7.20642888652026    0.85181568839475    1.84159470158108
N         7.56492501435868    1.80542799993964    0.78936096742321
H         3.68371057267851   -2.35221694524877    0.27693298628650
H         4.60712309128213   -0.88478507707053    0.15403664224588
H         3.36304548320979   -1.18403141890079   -1.06883410930313
H         2.82378969283109   -0.82776222004725    1.91991631909482
H         1.34329613451953   -2.11736272949908    1.09480582802314
H         1.11341147780193   -1.07504836893756   -0.44458658769993
H        -0.56326677148750   -1.62507226699657    2.59969588478279
H        -1.14381010861922    0.05762389359709    2.68287026204640
H         0.58677514000480   -2.01028604156987    4.24815413003607
H         0.96181824998744    2.75416882857610    3.16492721620275
H         0.35406691297992    1.58402543175772    1.93600519403855
H         2.69605695733594    2.88925472899606    1.60121324179194
H         3.75188917833047    1.21939828178795    0.24533928450824
H         1.99621555908660    1.25082435415740   -0.16978088134026
H         2.81741498431164    1.40839135121028    4.49744053673270
H         4.55629839188594    1.56049004162583    4.75070093186591
H         6.09104133883157    0.46447388657917    3.67375353981409
H         6.24920082051397    2.21886073862254    3.31806176436463
H         6.87957415475767   -0.03610873072310    1.28899833239083
H         8.16455803362626    0.74176026832421    2.35964764232088
H         8.04821377930735    2.62868999815340    1.15684773352362
H         6.70514183973189    2.11677780345298    0.34410662594541
