39
 energy: -54.519471417661 gnorm: 0.118793405421 xtb: 6.4.1 (79825abcba525fcdf90b791dcacef51065a7a4e7)
C         3.88714771830714   -1.12283262169538    0.16695834433185
C         2.87878044723101   -0.37190997115320    1.04265851907899
C         1.51507341682817   -1.04420725868144    0.82214900515842
O         0.33257807137274   -0.26580357570680    0.97838915266483
C        -0.39535927091709   -0.64997353313048    2.12728268673927
C         0.39700122585492   -0.51369862703382    3.41393672222683
N         0.48337655881829   -1.37157578921329    4.37864357670236
O         1.28556607583234    0.47738956528916    3.52340867584381
C         1.28151612551014    1.68504760972724    2.73852399035762
C         2.64816244894453    1.97635213623747    2.09450023347731
C         2.70578558258673    1.14358085902445    0.78971216272569
C         3.94983108351802    1.81185924748723    2.92476131629289
N         3.80419588564217    1.76396831257077    4.29192110962760
N         5.01638581569085    1.91824175849534    2.20691463875052
C         6.34899176543600    1.65768039084416    2.77148864057619
C         7.01509411034744    0.66833523868186    1.80123075230464
N         7.12672889956604    1.16605224683396    0.42831152741003
H         3.70381679303751   -2.19071623500430    0.32248426811358
H         4.93956487968279   -0.99410496670704    0.44233109861426
H         3.67420531773303   -0.94546821356512   -0.88524612136484
H         3.21103596089168   -0.53353283210480    2.08130275098084
H         1.57512167252878   -1.94725109068533    1.42542689075995
H         1.35990905339337   -1.21107915527169   -0.25129793201675
H        -0.72787128071131   -1.69481544982341    2.14765231125672
H        -1.28086582643327   -0.01684046833888    2.19014869332278
H        -0.02033863067576   -2.25864493508816    4.22679167916476
H         1.22640609748497    2.32624170436695    3.63013450731068
H         0.45417412910562    1.85210705803107    2.04683390918429
H         2.65033650149113    3.03951739142435    1.79409930782731
H         3.50389221630139    1.67673588773554    0.25511628223979
H         1.79209372134236    1.27446838867808    0.19152364188389
H         2.93851636601123    1.32947282233961    4.60970921174318
H         4.59045815941725    1.37442232110738    4.79739619203157
H         6.35437208425975    1.23900403894364    3.78505521789068
H         7.03915386508410    2.50939369574858    2.73546036855028
H         6.40878937922120   -0.23862703833201    1.69914972620523
H         8.02190945592497    0.43899903648844    2.16486555801999
H         7.61851909561703    2.06199345543484    0.47081594287873
H         6.17474456268164    1.42581208718020    0.18200301361066
