39
 energy: -54.537199046310 gnorm: 0.099081380696 xtb: 6.4.1 (79825abcba525fcdf90b791dcacef51065a7a4e7)
C         2.85097291688452   -0.54120075235844   -1.07723027238128
C         2.27146724862370   -0.09700107932345    0.26976638903008
C         0.81974828945273   -0.59980021550948    0.27293440527449
O         0.05483557472492   -0.16169303945264    1.39167885990723
C         0.31291963474970   -0.88793184264960    2.57633302431291
C         1.67827926134035   -0.78367146201128    3.22963805203542
N         2.38140533111605   -1.77444459541127    3.67467238344885
O         2.11234417254624    0.45163442829353    3.49306624261972
C         1.61030938493018    1.64164216280956    2.85561742586411
C         2.57773772625210    2.07276007739678    1.73956776033096
C         2.31460370743484    1.44660706367507    0.34744952078812
C         4.00422480734509    1.77848097658685    2.27740327063273
N         4.37946178276461    2.66427853045671    3.26086092570357
N         4.71315239743105    0.89838950607193    1.65529334936289
C         6.09703395779259    0.63189312540759    2.07520542415413
C         6.14452332557582    0.18677535441780    3.54609340630486
N         6.58923395114541    1.37037643650554    4.28529072985626
H         2.60035639944924   -1.60011632089140   -1.19581834848104
H         3.93809906681424   -0.41019797633126   -1.04595963440316
H         2.42827253175153    0.00135204134997   -1.92037776019397
H         2.71832400374884   -0.47370375767245    1.20449182523991
H         0.93313856332601   -1.68146061939213    0.28677557686102
H         0.30417242235328   -0.13531437696561   -0.57715086232461
H         0.17609843605856   -1.95559036129557    2.36643058824481
H        -0.53532301105268   -0.67953952164165    3.22901098322805
H         1.98483714889291   -2.68531810602599    3.39768360007379
H         1.70882304236849    2.43079073843134    3.61500920787117
H         0.56455775022467    1.59530081172272    2.54724296969323
H         2.53160092456172    3.16772006302811    1.59992599114619
H         3.15764052797943    1.79778584158078   -0.26327432554165
H         1.40959170353853    1.89582111126850   -0.08723872420384
H         3.71702820152073    3.32499772452008    3.66559358415890
H         5.26053621757985    2.38344617369502    3.67353577482152
H         6.63773033033002    1.56439265964806    1.87339339399480
H         6.52889317199642   -0.10257533962599    1.38448767544537
H         6.76702351949918   -0.70154829899942    3.70095181483025
H         5.12361528427092   -0.02789560364172    3.87800552430033
H         7.59433723786452    1.51962129596284    4.16752729682338
H         6.40058535142710    1.26563715795470    5.27920150308340
