39
 energy: -54.528178199174 gnorm: 0.101852925297 xtb: 6.4.1 (79825abcba525fcdf90b791dcacef51065a7a4e7)
C         2.99878600483551   -2.45588132478452    1.26768505798296
C         2.14287278831918   -1.19439015179780    1.42128443655165
C         0.64832654293590   -1.44027137179714    1.16403184826812
O        -0.07451237445381   -0.23615390595716    0.92691678593874
C        -0.49871176139274    0.30485109057329    2.16174639899576
C         0.60421184864466    0.53543342054689    3.17775621613015
N         0.72692316263841   -0.09101573769161    4.30317909155348
O         1.41894535111463    1.58851000431865    3.07274924922367
C         1.87382149417161    1.98442883091965    1.76476059741599
C         3.09719409930287    1.23125975468783    1.21390407437131
C         2.76167982182179   -0.10798548633280    0.51165578111263
C         4.32986272568183    1.15380699258553    2.15478755809845
N         4.14349057077541    1.07226846561274    3.51539254836829
N         5.47122290453639    1.08614186573152    1.55739450232607
C         6.70418678824854    0.72971405586931    2.27519247337240
C         7.42838341448873    1.95046707561431    2.86612211514458
N         6.95766454375290    3.17550142469090    2.21588651675848
H         2.46879198489085   -3.26312437667473    1.78308679247815
H         3.99995288534341   -2.29179935071186    1.68087367281575
H         3.13101844912743   -2.70750893446207    0.21738273709460
H         2.28913566960833   -0.95026202934546    2.48632253212311
H         0.18012148716140   -2.07157364050460    1.91588265274670
H         0.53072231005276   -2.01068271607342    0.23397234593505
H        -1.21218003462318   -0.43073474837208    2.55232327449249
H        -0.87787565940510    1.30450131246927    1.94758371095886
H         0.12186733977797   -0.92470459852327    4.35367664294089
H         2.21148068026366    3.01651849480440    1.93771577434300
H         1.01775607852811    1.94638977288979    1.08908031089306
H         3.46155133763568    1.85857210573628    0.38066411530020
H         3.65233135223013   -0.52595528773215    0.02271577922500
H         2.15423073355220    0.15311325487536   -0.36733620983053
H         3.27837465527089    0.87687731929648    4.01795933823803
H         4.94093278618638    0.67784214325388    3.99910040635596
H         7.36916645439682    0.42939025230442    1.45650834181138
H         6.49925867469586   -0.03770001067141    3.03157692257895
H         8.51583959319536    1.98090179590108    2.73528129481958
H         7.16948685133814    1.98306144076485    3.92933078800702
H         6.02376906788812    3.37787997116034    2.58093039849264
H         6.76002233899152    3.03172424706687    1.22862620763922
