39
 energy: -54.524132846968 gnorm: 0.103813309921 xtb: 6.4.1 (79825abcba525fcdf90b791dcacef51065a7a4e7)
C         3.69557528259953   -1.37815045683727    0.21901508842869
C         2.59556560484234   -0.60264148811567    0.95120681865106
C         1.21947929942638   -1.10625758104767    0.48962013450252
O         0.13181123068775   -0.31058972349707    0.95060750183251
C        -0.35155304899148   -0.69736165679126    2.22112004328465
C         0.49444333946352   -0.39747314999067    3.44432958821074
N         0.43441584924480   -1.20489232621865    4.45355910281158
O         1.18404806931332    0.70899297180488    3.73409747722522
C         1.40247857719150    1.77871440543722    2.79469209710076
C         2.68652672978780    1.84901840781821    1.94992895715930
C         2.68628006008313    0.92176260529622    0.70916430275537
C         4.02176150930203    1.70856976074545    2.72977180174065
N         3.88726383694937    1.15748897588245    3.98310710737802
N         5.10300774688578    2.15765327405033    2.18811633231135
C         6.42487517584062    2.14343133730497    2.83227382580622
C         7.29945589471682    1.09237957437488    2.12921245843839
N         7.35775889074391    1.26460202515965    0.67592930267519
H         3.65400952130156   -2.37990047391718    0.65826802833834
H         4.60677220745060   -0.87008458111862    0.55303916078570
H         3.58973498901421   -1.47171174322727   -0.85986440174993
H         2.58883783126326   -0.80906578078220    2.03409243737616
H         1.13357266023163   -2.10574857245683    0.90994854497695
H         1.32361729120824   -1.11468906153648   -0.60276016753655
H        -0.50947657535208   -1.78247985182789    2.23700869475158
H        -1.36817274979691   -0.31283408803105    2.30803609799407
H        -0.00034854200658   -2.11502079464744    4.23832490996611
H         1.52127309271534    2.64761638730372    3.45804230711897
H         0.51497413833448    1.87982189174673    2.16783329844484
H         2.80120483621368    2.87605761322729    1.55928179406461
H         3.60192442264382    1.27461354962163    0.21508652848571
H         1.86074223355991    1.19388589016916    0.03519836765826
H         3.04828998858174    0.70363728327520    4.34271543274749
H         4.61896970594330    1.07703543250264    4.67851579047976
H         6.44971101329945    1.99014435706153    3.91787150537445
H         6.84895315001782    3.14530565685068    2.69283553497755
H         6.97277633954698    0.05726116411710    2.27893512853983
H         8.26677837056885    1.24285260896960    2.61926102639345
H         7.09166898157324    2.19503455972608    0.34446840074847
H         6.74104057208289    0.58923903631208    0.23100168590603
