39
 energy: -54.517976015201 gnorm: 0.108980164150 xtb: 6.4.1 (79825abcba525fcdf90b791dcacef51065a7a4e7)
C         2.90864442259509   -2.44277809506815    1.22480113328027
C         2.00168441553688   -1.22151513573880    1.40777792244638
C         0.62165910093683   -1.40623363850763    0.75838269778547
O        -0.04588756107529   -0.14970528525273    0.69406726425902
C        -0.47924446660988    0.22937854952595    1.98477750324967
C         0.40048195471472    0.37731950614317    3.21200181955368
N         0.50347418972010   -0.51873473045003    4.13966159236671
O         1.31516010565740    1.34818559947937    3.27960602254840
C         1.87860886232887    2.03743393055896    2.14736904413337
C         3.07864801709175    1.25553600097026    1.58532921858731
C         2.58956995478734    0.04740902930984    0.74835121847859
C         4.25120500474635    1.05829149740905    2.58379670264555
N         3.94220629644315    0.44668468245102    3.77672836365380
N         5.38961672799188    1.45161392656023    2.12176175693142
C         6.68752701411022    1.33300446512777    2.80281631991202
C         7.65388467573901    2.46479310693258    2.41667663224700
N         7.74411077188555    2.72972412297191    0.97905270845890
H         2.60765354702018   -3.38232666847774    1.69896030466728
H         3.89225459781216   -2.10944828450653    1.57320479124170
H         2.96709136558650   -2.60921848288074    0.15110732661871
H         1.94677126819104   -1.16031696888608    2.50711264963499
H         0.09426491365283   -2.14291215358379    1.36021182609652
H         0.68165525614845   -1.81291870255449   -0.25907405983997
H        -1.20065661837672   -0.50869449711223    2.35556919781639
H        -1.03610687140098    1.16603890868232    1.94600751873122
H        -0.16601513415823   -1.30305013172358    4.12196808981259
H         2.32510112853322    2.95134896199318    2.56514921244380
H         1.11799888714731    2.28096347749450    1.40372622769359
H         3.55626931746655    1.89367025126027    0.82032700632266
H         3.55060730374770   -0.28739531886855    0.33442549601040
H         1.86496476900890    0.46664639871312    0.03492201999583
H         3.07370196619017    0.69243208390320    4.25052692360853
H         4.74993294957328    0.27775946528940    4.36367080255128
H         7.17174427323437    0.37985133014357    2.55854436595757
H         6.48159822941214    1.35741703268043    3.87986537885796
H         8.65736871666340    2.23139933236235    2.78970968243120
H         7.42570850971659    3.41285689968179    2.91428409062363
H         6.90472559633344    3.26608758497285    0.74641213964638
H         7.83407929710396    1.82113034179623    0.53096762684615
