39
 energy: -54.515014470059 gnorm: 0.120461213502 xtb: 6.4.1 (79825abcba525fcdf90b791dcacef51065a7a4e7)
C         3.29394678404910   -1.65519905041199   -0.13204501797961
C         2.38948264764656   -0.84875604435664    0.80557674849669
C         0.91159341952316   -1.19631946210157    0.57031485661799
O        -0.05304982673554   -0.29323721671606    1.10184513615043
C        -0.40574287693717   -0.50111574039207    2.45455718051279
C         0.65121437198410   -0.25006656549320    3.51366077848845
N         0.86561010266296   -1.18259829592972    4.38457545023374
O         1.22175490782014    0.93501002665863    3.74574802597974
C         1.48488880011984    1.84798765340323    2.66328284236512
C         2.78297244067048    1.64972492254502    1.86139873063675
C         2.60670322544813    0.67603052964050    0.66969868145167
C         4.07948022269408    1.60214703026348    2.71435646360968
N         4.17858977628657    0.48883192643024    3.51643879842177
N         5.01722932648791    2.38242072363884    2.29488071130124
C         6.35912013337337    2.64990934368114    2.83363267846038
C         7.43950230752335    1.57741878299619    2.61814497205569
N         7.49973475334157    1.13831037272756    1.22220528063572
H         2.89314170228248   -2.66346208342189   -0.27673405022433
H         4.31221431542700   -1.63362281277530    0.27125210338935
H         3.34684059322393   -1.16917783944319   -1.10411625252953
H         2.67570802950337   -1.14017499862744    1.82951405130812
H         0.67595789761919   -2.17171914205010    0.98996895145018
H         0.73407318430767   -1.19013131021342   -0.51257887586042
H        -0.71658585625844   -1.55193465131349    2.49733666532768
H        -1.20253739715192    0.24306446514809    2.47023590764669
H         0.39912315372754   -2.05711664718716    4.09946624473742
H         1.57772322518820    2.81265880281305    3.18282851381207
H         0.52439414014209    1.93411913616808    2.15252822640475
H         2.72965153502009    2.56979809575736    1.25214660004354
H         3.44680677718690    0.84269629116294   -0.01839277978970
H         1.78836950359620    0.98035768661867    0.00073765594385
H         3.35782107640023    0.19363475436047    4.04405046175072
H         5.08350164626501    0.46219900539067    3.97018404629657
H         6.34654033631297    2.76187317054372    3.92447727555105
H         6.70850291453915    3.58265095202830    2.37432655042992
H         7.20360539902910    0.62781304459955    3.11130634672896
H         8.41772775373149    1.95969149113969    2.92708683538194
H         8.09858215448753    1.71253302326788    0.62385336658333
H         6.56421186313362    1.03034897626025    0.83807184261011
