39
 energy: -54.530404938717 gnorm: 0.095741606044 xtb: 6.4.1 (79825abcba525fcdf90b791dcacef51065a7a4e7)
C         2.80833701933178   -1.73604790498483   -0.29265083479587
C         2.16340748869555   -0.82087829357539    0.75332749587602
C         0.64248570697654   -1.00865137076916    0.64450120695039
O        -0.22949225719549   -0.04579102606818    1.22860129251775
C        -0.41655417475157   -0.24435728338483    2.61532944771946
C         0.79333373990721   -0.00022114746980    3.49762952463613
N         1.28851571261168   -0.90754674266786    4.27585079225335
O         1.45820449565781    1.15224392002597    3.61407083724910
C         1.60367472767711    2.02628716371999    2.47855986917533
C         2.78150886441338    1.68798364707352    1.54818113611168
C         2.56780417901610    0.63629032374127    0.43123360637328
C         4.17844403720659    1.48781324442386    2.19566593011502
N         4.32745805528229    0.41086108046389    3.03863563136186
N         5.05123133685775    2.37069592929626    1.84506559831949
C         6.38733090349039    2.54248583769002    2.43481200305085
C         7.31228198605105    1.31760579442066    2.34519672175570
N         7.42661257753751    0.60397787101949    3.61907090872027
H         2.72486967996279   -2.80427063713940   -0.06880412353974
H         3.86574727599319   -1.48237429686593   -0.42499923423484
H         2.27837155840138   -1.63142985045703   -1.23717638343995
H         2.54896288276883   -1.01015124459869    1.76862070692285
H         0.40923198685626   -1.99137603987491    1.04808898324037
H         0.39563486095110   -0.99880947608183   -0.42469397341853
H        -0.58749232605046   -1.32091678555534    2.73563566942091
H        -1.23525112861045    0.41095462358812    2.91404851852707
H         0.81459758584014   -1.81792617024006    4.17440832077406
H         1.87693172754771    2.96038280026310    2.99035304718489
H         0.69237790846472    2.25186181736579    1.92223892113460
H         2.89516745596692    2.64931181939407    1.01573800319196
H         3.56890382060884    0.63383058460726   -0.02133097767229
H         1.91092404056155    1.04197737087782   -0.35216946456071
H         3.63940297900549   -0.25226104116630    3.39363688720859
H         5.20967934284548    0.28638645764180    3.51993716396563
H         6.24711491261184    2.87527015058927    3.47029745608252
H         6.85959886004821    3.42099672099762    1.97850188712254
H         8.27960195511394    1.64117084885752    1.94494147109215
H         6.97760039878992    0.64128445632350    1.55205096843612
H         7.80057204591295    1.19041652448909    4.36915016610953
H         8.00301639329702   -0.20542667330256    3.40218347137109
