39
 energy: -54.531639624092 gnorm: 0.105854863146 xtb: 6.4.1 (79825abcba525fcdf90b791dcacef51065a7a4e7)
C         2.72867594024183   -0.71014769767133   -1.21927125963732
C         2.29304632040063   -0.21968478064956    0.16536338807873
C         0.86788242642780   -0.74718954586914    0.39108782244414
O         0.13079158496122   -0.26622785380450    1.51090541917383
C         0.58019965629501   -0.86333821904881    2.71045837046079
C         1.92825252324324   -0.52497740774673    3.31885796196877
N         2.75214035468018   -1.41744120796070    3.76471720039254
O         2.18133148740560    0.74569713541276    3.64308731234377
C         1.61265411065250    1.82979993450099    2.88425564186211
C         2.48341276949086    2.07641422874280    1.63994545365386
C         2.28363874419643    1.32032141986140    0.30289112739152
C         3.95023435573164    2.07953444998725    2.14902039984696
N         4.28447313990524    2.99400670044965    3.12095351772977
N         4.75026704911900    1.17264289583633    1.69995973292748
C         6.13027320180922    1.00607855250736    2.17987012175407
C         6.25327126058909   -0.11785911855392    3.22175884601839
N         6.01187736933619    0.37457474810870    4.57981982323865
H         2.70391844912893   -1.80422869354723   -1.24267611770790
H         3.77309874560844   -0.46872006839628   -1.44482954780662
H         2.06004650273623   -0.38891847231711   -2.01531352547434
H         2.95443522844276   -0.68566916095298    0.91417629327775
H         0.89899676501170   -1.83321519315676    0.44225759715310
H         0.23472426338582   -0.46684275991116   -0.46022113998556
H         0.47875733308972   -1.95218488838432    2.62801942864378
H        -0.12861626915861   -0.37301637008694    3.37836251798782
H         2.39630195781364   -2.37967234654843    3.65902927392598
H         1.77096450886563    2.68020006676965    3.56314718519704
H         0.56027138543760    1.69197905544950    2.63061255265867
H         2.39026962349312    3.14956690549926    1.39452033030189
H         3.04589512875229    1.75856876347871   -0.35583923756939
H         1.29537913647114    1.69781891106459    0.00183887746624
H         3.79177201564536    3.79321270842909    3.51805801373787
H         5.24717867140005    3.03090691416781    3.43287647120248
H         6.56723854339261    1.95472073690168    2.51419831159861
H         6.70613290111840    0.70601899297989    1.29590904387817
H         7.29907172690571   -0.42940461330531    3.12252516339375
H         5.64170345329760   -0.97221293425311    2.91424156652660
H         6.28139978094092   -0.34862587593527    5.25117174127960
H         5.03710839417963    0.65520941869921    4.65389318059612
