39
 energy: -54.523515299379 gnorm: 0.107731043602 xtb: 6.4.1 (79825abcba525fcdf90b791dcacef51065a7a4e7)
C         3.14098935580287   -1.40619869093609   -0.04398556915835
C         2.23159349520716   -0.54019303110236    0.83383761527724
C         0.77334396837348   -0.91373101634296    0.52678284991965
O        -0.19577315882343   -0.04495721166268    1.10528313665199
C        -0.40494031149820   -0.29059576706254    2.48127240702646
C         0.70890738069953   -0.27619521955169    3.51133092236711
N         0.91424368057854   -1.26348889555311    4.32198586727470
O         1.64543253725047    0.67505343458829    3.55415652726780
C         1.59961004286271    1.86905278260527    2.74994002505384
C         2.78591261319499    1.96590249551435    1.77492543829789
C         2.58916656122367    0.94920700335907    0.62300461052853
C         4.23549011774089    1.72360259265197    2.27567330731261
N         4.36625774437574    0.55312748626615    2.98667042511391
N         5.13225509794639    2.52665803707301    1.81191195434965
C         6.58671832609255    2.33128302008202    1.90593290469781
C         7.17221064156788    0.94325491400481    2.21329787472197
N         6.97914979860765    0.64434453910150    3.63402720564727
H         2.85078463291155   -2.45995306560127    0.01565408553892
H         4.12025332794058   -1.34981660713139    0.44370898987222
H         3.03542145116351   -1.06063165932332   -1.07032648805427
H         2.36140585298392   -0.93938076534428    1.85319791017747
H         0.54486540115540   -1.95556144744852    0.73991439086101
H         0.56790560378220   -0.79502662658625   -0.54462504447260
H        -0.97059426631075   -1.22737511390340    2.55306267398893
H        -1.06772794425793    0.51966548497940    2.78642930132614
H         0.24477332727531   -2.01224094508453    4.08776486111225
H         1.68596621866141    2.74999678280194    3.40233297936113
H         0.66341368456418    1.80045620398754    2.19346027953043
H         2.79184718221700    2.95607613500951    1.28493896506435
H         3.50845745439218    1.05394555744045    0.03058978444121
H         1.82298518504933    1.37655599030462   -0.04042045054641
H         3.56125712117572    0.22978308572277    3.52201987051478
H         5.28320183686238    0.24482292267086    3.28603863038424
H         7.05066351849991    3.05739741960852    2.58427556995372
H         7.02225614565940    2.58474056294473    0.93171352976344
H         8.24984041027684    0.97513109587745    2.01758247182510
H         6.91702361522370    0.08436147584191    1.58426358711768
H         7.35339494744245    1.42418234436245    4.18007522119484
H         7.35983451571395   -0.20461843104987    4.04482916955193
