39
 energy: -54.523131068166 gnorm: 0.112978263286 xtb: 6.4.1 (79825abcba525fcdf90b791dcacef51065a7a4e7)
C         3.68403999034749   -1.17797996495506    0.28876326730595
C         2.45877476407753   -0.48220616401199    0.89056400666755
C         1.06471906365786   -0.88410265779491    0.38519990666659
O         0.01626466269825   -0.11984124803712    0.97279363340414
C        -0.30959621319501   -0.61147093437218    2.25714195454725
C         0.58275204159424   -0.33450171617994    3.45250266673136
N         0.77372771028362   -1.10770458494594    4.47218832638904
O         1.28514021101510    0.79934111775470    3.52206324246615
C         1.38233890757302    1.90552778723331    2.60478369453626
C         2.67982798591696    2.02907744425147    1.78710120319845
C         2.51038260063579    1.03730266128672    0.60940371048981
C         4.09533656279492    1.75033416876744    2.36100908547886
N         4.21666156325259    1.22571964240779    3.62698258505434
N         5.09619818240631    2.10721892686417    1.62952471667084
C         6.42152778670185    2.26453564902095    2.24696098470644
C         7.24464462194628    0.99559715367683    1.97097130201463
N         6.88384723301970    0.00846339168838    2.99101244164592
H         3.73250118666518   -2.23615005863581    0.56462830352261
H         4.56559454559663   -0.64810027338272    0.66568756909787
H         3.64597923749525   -0.94233965730163   -0.77282133381152
H         2.57760741556563   -0.58269854293709    1.98192902588091
H         0.86533013281544   -1.93005955333976    0.60713771741705
H         1.09858316803574   -0.78157859095979   -0.70684064834385
H        -0.33911881453736   -1.70767457255036    2.24531885527350
H        -1.28775961699544   -0.25080971000928    2.57659665506435
H         0.13465936472085   -1.91705137841748    4.45705294908187
H         1.43096915809828    2.71798268533802    3.34416751108726
H         0.46464586702547    1.91895559472875    2.01444651828046
H         2.59103405546262    3.01113737088475    1.28886457658180
H         3.34472269808763    1.18786916341030   -0.08932912232708
H         1.59686655073907    1.25196752415951    0.03564304646821
H         3.32411903285912    0.90674256400860    4.00221330868392
H         4.98126348919002    0.59555386108506    3.83611049443343
H         6.40988036158351    2.42581363781014    3.33162212720142
H         6.87977289602820    3.11710445013173    1.73103930411072
H         8.32431067243329    1.17065525466808    2.03641146896599
H         6.98133226650261    0.62299846251879    0.97581336243645
H         7.38206787795721    0.23557032438341    3.85505729108905
H         7.13342072270363   -0.92684180769571    2.67902767710518
