39
 energy: -54.530039367162 gnorm: 0.105591734313 xtb: 6.4.1 (79825abcba525fcdf90b791dcacef51065a7a4e7)
C         3.65000873873570   -1.20852886542723   -0.11798330244025
C         2.62488451881864   -0.52739385888194    0.79454921932256
C         1.27233453468127   -1.22514233259419    0.58464315478900
O         0.29443397415270   -0.41116914183274    1.22478115241731
C         0.02424479311314   -0.78235123477062    2.56144016871596
C         0.88090750310315   -0.27339397173126    3.70554509799755
N         1.27385828147707   -1.07847890076612    4.63908736324306
O         1.21813890615165    1.01694884630777    3.77680362158328
C         1.12143211687158    1.85809664097981    2.61163561042843
C         2.42013104922788    1.89870718206803    1.78757314125156
C         2.44267111731646    0.98610312928227    0.53619546724146
C         3.67204211671664    1.70174339631124    2.68459965108507
N         3.63477861417350    2.27293013688688    3.93559373353419
N         4.68571117182508    1.28322059040550    2.00528101888557
C         5.95216761272687    1.14948578369045    2.74058894317800
C         7.04722327462492    0.56584771019632    1.83278046850805
N         8.04333212398972    1.48759273870969    1.28210360927511
H         3.58152019760774   -2.30045778094196   -0.15225442726956
H         4.63806621794129   -0.83809724151640    0.17613516895520
H         3.43216366505446   -0.91931423437849   -1.14406090969438
H         2.93889445230173   -0.62379605876200    1.84688086228228
H         1.27613158944436   -2.25934337892368    0.92146942462963
H         1.02713565362928   -1.08306775705493   -0.47549969329000
H        -0.03250536175222   -1.87638459966449    2.51100015949903
H        -0.92470376781774   -0.31342326825125    2.82323142325450
H         0.95644624526769   -2.05857010253095    4.59060550134584
H         0.87197409237523    2.87626820572740    2.94365012441259
H         0.25222134734447    1.56332147412827    2.02136529437587
H         2.50570902039240    2.92377726265720    1.38449307953304
H         3.31150741364924    1.27103135506429   -0.07286990363786
H         1.50048406215654    1.08059774050690   -0.02340097512323
H         2.68767441282083    2.37793408514050    4.29773243944284
H         4.36674844228005    2.10579679151542    4.61511276199756
H         5.78153642363450    0.42361682336355    3.54472531104954
H         6.23704360079698    2.11302557194593    3.18044581328899
H         6.49270318083307    0.10423011457487    1.00814527900363
H         7.63265751904556   -0.15253287034469    2.41561714521214
H         8.66457117686081    1.95269358405932    1.94852548215202
H         7.58068361827695    2.15634783753090    0.67125157069940
