39
 energy: -54.519438612855 gnorm: 0.115090804065 xtb: 6.4.1 (79825abcba525fcdf90b791dcacef51065a7a4e7)
C         3.23248773671386   -1.84124580631688    0.40664786351582
C         2.44227984388746   -0.74918998000739    1.13501984507803
C         1.04233100944975   -1.25001484159631    0.74820897384262
O        -0.07859549160627   -0.41377987480041    1.01812260293871
C        -0.42928271689114   -0.37426106380434    2.38665919607688
C         0.66709364791643   -0.13810934125926    3.40845948626128
N         0.96767440687981   -1.04271277035463    4.28334066413260
O         1.14194626722302    1.10114234003335    3.55865154583070
C         1.55555005319215    1.93878868131902    2.46239481659137
C         2.92190713829270    1.72881368245009    1.78687583898289
C         2.96824205940584    0.63525675032553    0.69084362144694
C         4.11682339021536    1.48741407031909    2.74845473853170
N         3.94702448354176    1.86292136966302    4.06100631484114
N         5.13656781641192    0.98107151066618    2.14190828902699
C         6.46643209599521    0.74505870659099    2.72348682784690
C         7.37943480896161    1.38617181041860    1.66551869579564
N         7.01977960240957    2.68866037733150    1.10048470723883
H         2.79910660297280   -2.82873119033974    0.59433740209871
H         4.26169803227944   -1.82682323565345    0.78148250150852
H         3.28736939354678   -1.69837492510725   -0.67062311132897
H         2.65713625133586   -0.96894410987943    2.19371826968058
H         0.82830552539119   -2.26561039177535    1.07347336529445
H         1.12937843841098   -1.27636806428635   -0.34538088775633
H        -0.99045784067335   -1.27970267356946    2.64729640749997
H        -1.14873483810284    0.43437253642220    2.51868880316339
H         0.37379081483868   -1.86852951620629    4.11302141783828
H         1.49790918778783    2.90016391556586    2.99302790669663
H         0.81509532964761    1.98644863650815    1.66221100211131
H         3.01574325035472    2.67757397632235    1.22865143825559
H         4.05236304679175    0.52306029380950    0.55258704950224
H         2.42163466113195    0.94382518183360   -0.21237270706332
H         3.00143633951174    1.70743063315319    4.40865891496887
H         4.58587830889272    1.53381687738274    4.77445954900281
H         6.57651207398417   -0.32200928670731    2.95126816954193
H         6.57827259256755    1.37159901397721    3.61678199977501
H         7.50181843970799    0.68861328929162    0.82943204274114
H         8.37485955631738    1.48609536357205    2.11009418056436
H         7.12164668284868    3.46759535755512    1.75566274793596
H         6.04976695706501    2.69960263683861    0.79491479667704
