39
 energy: -54.514755970283 gnorm: 0.118322525299 xtb: 6.4.1 (79825abcba525fcdf90b791dcacef51065a7a4e7)
C         3.59086801674554   -1.70635380692117    0.91822675684835
C         2.43123024214756   -0.75333081928301    1.22568016631746
C         1.15394694574567   -1.30675142939908    0.57562019423028
O         0.18642614948207   -0.31666417450534    0.91065638662578
C        -0.42477559502010   -0.36956697654347    2.18386860888584
C         0.26095580797873    0.13384761246932    3.44014514341505
N         0.21293606995236   -0.59358466732370    4.50907431788169
O         1.01835676566705    1.23194024632563    3.50589998850349
C         1.44937204664284    2.13375692852264    2.46886055799160
C         2.76105351127830    1.80510399331946    1.73481283133511
C         2.65375019447385    0.67605162957837    0.67981183871037
C         4.00289235643793    1.40705636836921    2.57750316361663
N         3.77130397512641    0.88138640068730    3.82756995281706
N         5.12454892655375    1.79977442940675    2.07568728797608
C         6.36336602942330    1.37276083013470    2.74311985848491
C         7.63167929525574    1.87727980987771    2.03549100473628
N         7.89513824856510    1.14054325364306    0.79738746619037
H         3.36858038411801   -2.76720180902017    1.07107856781048
H         4.45246825111027   -1.48128917065044    1.55617173374318
H         3.98766051460556   -1.62004825810321   -0.09125028760252
H         2.34338982825509   -0.73501191818636    2.32442763417650
H         0.84740747542259   -2.29893925848819    0.89909356859330
H         1.20457520772590   -1.20413096947485   -0.51576257754172
H        -0.68999500519405   -1.42028457428026    2.35216882040726
H        -1.34301358951066    0.21496237242322    2.11986950783185
H        -0.48110060026289   -1.34912247092751    4.61469333413756
H         1.59730636151358    3.01827803620057    3.10515776410669
H         0.72327797242123    2.24595500671212    1.66199142903231
H         2.94032754222957    2.74400371618505    1.18083274720175
H         3.68517490472369    0.62650357820919    0.30467278939886
H         1.90987155534296    0.95494032359510   -0.08088490585552
H         2.78097153918278    0.86913855844185    4.06895822810038
H         4.49642398351109    0.44326004651705    4.38228228169491
H         6.21747320138460    0.28881105781190    2.82314626492921
H         6.43478124853017    1.88332083481192    3.71124468039425
H         8.56736116282103    1.74205066778967    2.58940350396483
H         7.50067907860946    2.94405747646180    1.82733995508790
H         7.01157813428011    1.13789560122686    0.28193680318581
H         8.37284443359982    0.24674294608228    0.88303235207086
