39
 energy: -54.521513254388 gnorm: 0.106674623500 xtb: 6.4.1 (79825abcba525fcdf90b791dcacef51065a7a4e7)
C         2.91722240145740   -1.98945848799433    0.16461234628768
C         2.16452316995153   -0.87992099149948    0.90617190720733
C         0.68552225140608   -0.94353480811066    0.49530149443833
O        -0.21864650069585   -0.14392936443568    1.25142880446189
C        -0.44821200098523   -0.51659342342819    2.59525053689003
C         0.60086448768511   -0.23948574609377    3.65569122316336
N         0.63737056333698   -0.97679140103916    4.71829223649629
O         1.52700768326443    0.72242613101792    3.62791150032398
C         1.63012767197797    1.69261916717357    2.56838799891655
C         2.83890104045945    1.55888272010090    1.62587615298364
C         2.82117836493991    0.46749799042312    0.52684677850961
C         4.16621812828252    1.46155570745180    2.42555695977592
N         4.34443181101679    0.37976089652692    3.25657375262893
N         4.97443329472203    2.45950326555189    2.30288265701583
C         6.29665057669011    2.62952936324576    2.92361384679094
C         7.32343669996719    1.57256227653662    2.48494843120891
N         7.93917320375813    1.81356861751175    1.17809104133723
H         2.77202280887992   -2.99141745599489    0.58074844520352
H         3.98780815376266   -1.97329522328727    0.39605940743291
H         2.84033256866850   -1.86795459781341   -0.91393370929146
H         2.31459097127516   -1.05229252115732    1.98462692165467
H         0.36384671419743   -1.98240768483835    0.51279865988002
H         0.51083741194933   -0.54494193971706   -0.51208098527313
H        -0.66107955420240   -1.59212802379706    2.57103255373982
H        -1.32505632215229    0.06688616473422    2.87743323720599
H         0.19764783951467   -1.86883066314690    4.44518136664257
H         1.86344943698045    2.64150813434949    3.07267657926999
H         0.67400517189528    1.69100895998720    2.04239752825604
H         2.91289628775334    2.55526982203934    1.15438570194918
H         3.85476027480450    0.41528578931289    0.15806019346051
H         2.37504220461936    0.86604706868978   -0.39614564609627
H         3.56134308124131   -0.14517256252849    3.64437980248821
H         5.23642992780770    0.47549708811189    3.72629009684962
H         6.26814598414795    2.66606651491423    4.01928193534204
H         6.62087045534828    3.58685119494256    2.49764002523759
H         6.87825318407576    0.57238901097281    2.43943354549494
H         8.19462047280064    1.63983373336370    3.14450577186671
H         8.37000669695190    2.73609464357749    1.07958671785258
H         7.21736687809973    1.73800951004277    0.46555775509135
