39
 energy: -54.525412292588 gnorm: 0.101197936162 xtb: 6.4.1 (79825abcba525fcdf90b791dcacef51065a7a4e7)
C         3.61153531130671   -0.92090162294722   -0.18761752599123
C         2.70445738637254   -0.27024830329426    0.86185857274232
C         1.42354023054086   -1.11326322840738    0.76761406810916
O         0.20546815560127   -0.57801198244564    1.27596930026694
C        -0.03571870894042   -0.82115408884540    2.64715364242933
C         1.15634600852459   -0.49774645464300    3.52821768207870
N         1.66007425437103   -1.33085773272792    4.38042464367172
O         1.69340975273099    0.72322005154803    3.59597277033989
C         1.24255560218992    1.70202314394925    2.64037170955947
C         2.38954475605992    2.14090724992863    1.71347163337530
C         2.45510509302565    1.20698386876248    0.47945814969587
C         3.68633223299591    2.12563989650904    2.56719391808656
N         3.61596799577339    2.83377350596645    3.74457435340159
N         4.69443698429813    1.44046836223332    2.14479028413531
C         5.85189525729850    1.04375087123021    2.96049868818858
C         6.74708995107848    0.16500658953794    2.07149280259724
N         7.54471248278972    0.89673223878771    1.08484818153220
H         3.64060179580506   -2.00356159727032   -0.02894656659245
H         4.64913905563825   -0.58078962971130   -0.09995253598177
H         3.20364979192221   -0.60743253449709   -1.14642062034875
H         3.16522516176847   -0.21962051048913    1.86207224904505
H         1.65141169970000   -2.10247082359616    1.15823036190107
H         1.19833161513467   -1.06479110866556   -0.30529882273697
H        -0.15663523380974   -1.88827096345260    2.86922247484219
H        -1.02594573746298   -0.42804257938171    2.87919942604966
H         1.28430975483986   -2.28989291313059    4.32815391966789
H         0.89737197705703    2.55806272656991    3.23801775491784
H         0.34336254986212    1.34467485450858    2.13579973804676
H         2.13711376045964    3.19530474882879    1.50112687584024
H         3.28412445319958    1.50685867043984   -0.17615090754051
H         1.49739707530868    1.26659945264233   -0.05816179142972
H         2.76378824760766    3.32768623167746    4.00728430349164
H         4.25865037813679    2.65822747538020    4.50720298626684
H         5.57037678950844    0.44474999620300    3.83490210711516
H         6.36537694641765    1.91150911991129    3.39220400668356
H         6.05608631308765   -0.48865239654668    1.52757145311905
H         7.32540705376660   -0.56614171126423    2.64549105115560
H         8.33470451032724    1.40577708027169    1.48877987799510
H         6.84432577589083    1.56918512667271    0.78205648718862
