39
 energy: -54.522890601861 gnorm: 0.120142141343 xtb: 6.4.1 (79825abcba525fcdf90b791dcacef51065a7a4e7)
C         3.93661734456718   -0.93941411209302    0.33191569050529
C         2.69338610346867   -0.40899988166403    1.05342592273687
C         1.36884374584807   -1.00107427883832    0.54811372788331
O         0.16632799921357   -0.35421793835969    0.95326959415267
C        -0.29953124497533   -0.63157413692863    2.25844559349920
C         0.65709073714833   -0.43962619517777    3.42030401809911
N         0.81694065422170   -1.38662910451387    4.28731425305450
O         1.18744036938954    0.72583144864779    3.80007390569367
C         1.24688170509624    1.79347353765893    2.83513586678286
C         2.59486427217834    1.91558561809047    2.10344009315479
C         2.58960514333450    1.10939884045774    0.78081559987733
C         3.94364263496911    1.65140541862537    2.82575464988698
N         3.95489081787933    0.93511004104432    4.00024323071449
N         4.93522028053297    2.23156667928278    2.23894399744272
C         6.36836046864882    2.15908633345161    2.56039449187428
C         6.87480312023645    0.79396411239582    2.06657905893889
N         7.00813812956594    0.70178814284194    0.61096334544812
H         3.92507716540596   -2.02108039363398    0.49936369739736
H         4.89000214247369   -0.53556406916516    0.68961027948529
H         4.09424961826541   -0.77926347167027   -0.73271601881211
H         2.87782572111316   -0.56281033161443    2.12935430976890
H         1.47728774396856   -2.04422349557257    0.83641526572777
H         1.38738348328202   -0.95868646512300   -0.54827584181365
H        -0.78113363570849   -1.61380682043429    2.33559404618672
H        -1.04684966878245    0.13987400300401    2.44636690911745
H         0.38416010083425   -2.28798762491755    4.03446355430579
H         1.07279107162468    2.64749080941480    3.50557097456347
H         0.40833882692888    1.77700356348598    2.13698589237649
H         2.66725246976307    2.95580694464589    1.73838483606162
H         3.43630255334284    1.49404544477541    0.19586113578447
H         1.69323773617030    1.39317045354168    0.21003279246321
H         3.16433292710997    0.50658582202490    4.48041177394995
H         4.89361929518581    0.73578933598907    4.32353813140135
H         6.62606245887396    2.36854315788883    3.60555168328402
H         6.86183691153120    2.89071782602342    1.90906226202214
H         6.10272452756503    0.04354876459276    2.26999485363017
H         7.73624306736315    0.39487870647794    2.61169790440955
H         7.88394064366663    1.15843375200275    0.34484379568668
H         6.28755878482863    1.37015965989779    0.34931059990188
