39
 energy: -54.521796622907 gnorm: 0.123406157658 xtb: 6.4.1 (79825abcba525fcdf90b791dcacef51065a7a4e7)
C         3.61336410547953   -1.76925311991505    0.66899105245731
C         2.56830763647016   -0.77378483617681    1.18322840409185
C         1.15343513550089   -1.25986110213537    0.83369926182990
O         0.16437806082327   -0.23623974093672    0.88453168028849
C        -0.57804732907525   -0.33238081888550    2.08327983016833
C         0.22896987550291    0.02144188106963    3.31835770873260
N         0.09662542857563   -0.59256780560893    4.44952980504286
O         1.25619335631472    0.87229529339933    3.38653261968183
C         1.44283884219623    1.93033149444663    2.42725101083711
C         2.82265424445674    1.68347214776990    1.79280872262555
C         2.85289968963813    0.64652530358506    0.64253624716845
C         4.01960908731974    1.51062466948399    2.76654146264537
N         3.92286517828952    1.96514655537449    4.06140806143233
N         5.09579551332445    1.11887622284429    2.17281087485682
C         6.41344923301625    1.02429590114253    2.81881232934769
C         7.39440113899619    1.84567906647116    1.96619308232068
N         7.63138824680489    1.29996426212914    0.62786419702977
H         3.20194962796434   -2.78344104782051    0.68729207157304
H         4.41452534892227   -1.64243557953961    1.40522527011236
H         3.94027282300190   -1.48382170794392   -0.32880473718600
H         2.79015291798546   -0.78492515638507    2.26302379374928
H         0.86692680550388   -2.05065952868093    1.52332886414899
H         1.26800811171113   -1.59395505038510   -0.20527369447386
H        -0.98085049519434   -1.31623150622756    2.35246606676590
H        -1.36045839110983    0.42259290975087    2.00094466195453
H        -0.70122445273421   -1.23668835032316    4.33896778912051
H         1.35197407765585    2.79179350082532    3.10457153438398
H         0.64728794170207    1.98938433363146    1.68263679030657
H         3.02693064966364    2.70795409413926    1.43326219378863
H         3.90600577729443    0.61712284984538    0.33088852214014
H         2.23589312962623    1.00258320700475   -0.19550882004593
H         3.03665791063452    1.96528221628699    4.56520691799915
H         4.66130341379397    1.64838273697549    4.67771087039780
H         6.63810738075960   -0.04888920557010    2.83975247042457
H         6.49908306096890    1.39512310597310    3.84749660694605
H         8.35810952725317    1.79402778163703    2.48504259909802
H         7.06847190564719    2.87550800323219    1.78807795605700
H         6.70124174093834    1.11444150139505    0.24474064761418
H         8.22258608988117    0.47537409854064    0.69824464714218
