39
 energy: -54.523912908342 gnorm: 0.120267125293 xtb: 6.4.1 (79825abcba525fcdf90b791dcacef51065a7a4e7)
C         3.22288479114211   -1.58637694180458   -0.02933384304328
C         2.35663342011939   -0.65990773232266    0.83020297803495
C         0.88995397559506   -0.95627926210057    0.48189238251537
O         0.02408581516467   -0.09388633123299    1.21344503444058
C        -0.35951308179878   -0.53826171505154    2.49906476485868
C         0.72566041978701   -0.41584628381944    3.55229672500979
N         0.99809993143143   -1.39112566448153    4.35770351075326
O         1.41648322462627    0.70686234605179    3.76695133660824
C         1.48059022315932    1.67991279188383    2.70696952519499
C         2.72018473511715    1.74479508220833    1.79782552526317
C         2.74000858913099    0.81345206352078    0.56028461208036
C         4.07881506705342    1.75516564748012    2.54932315408898
N         4.18361404149065    0.88502539948464    3.60974863125988
N         4.99849149639657    2.54372074701702    2.10599909172715
C         6.27209312490009    2.39578564486155    2.82608850785694
C         6.92816770146679    1.06495661926627    2.42315328525187
N         7.68700332985363    1.06081095737383    1.17045896951175
H         3.11694539271184   -2.61437552923731    0.33145654021875
H         4.29783406233646   -1.41258038347625    0.09008838033100
H         3.02531071520140   -1.53822097874016   -1.09825026840074
H         2.57874919102056   -0.85870852294594    1.89154191753738
H         0.55257322482924   -1.99021975284062    0.46849655102280
H         0.73312850238170   -0.52536374783074   -0.51506705833059
H        -0.49847985513416   -1.62522933610446    2.54223216683223
H        -1.27645354491269   -0.07591978505597    2.86565936382836
H         0.35284037008438   -2.18869481414460    4.25185826820324
H         1.47162199499311    2.58487760752722    3.33154501767099
H         0.53373881890338    1.72044594615268    2.16598127786856
H         2.79210324616546    2.73206826849046    1.30722875042291
H         3.75926396142318    1.02521996237400    0.20915204375102
H         1.98663345503361    1.29005602693984   -0.08397344531379
H         3.33057329345577    0.44015874266292    3.94678242635203
H         4.91550604626303    1.07915886689644    4.28213675797978
H         6.16269703224844    2.46375783745456    3.91514696691056
H         6.91947985018275    3.23974853685248    2.55840513530233
H         6.24508951559200    0.20989540706839    2.47682870544732
H         7.70816136257288    0.86000181393919    3.16349504677604
H         8.54231435782343    1.61681830514391    1.24578324314894
H         7.17114841051068    1.63157858461693    0.50522573664676
