39
 energy: -54.517927449021 gnorm: 0.136909028902 xtb: 6.4.1 (79825abcba525fcdf90b791dcacef51065a7a4e7)
C         3.54984729569090   -1.81937279955641    0.48488636737368
C         2.54254881011739   -0.85013772534398    1.11216087640675
C         1.08641775583357   -1.10425829464470    0.69334105438144
O         0.09459440750849   -0.13612917149343    1.02141264553397
C        -0.35763954156047   -0.35988025731357    2.34158520918493
C         0.65755113214034   -0.16853096435207    3.45273685316629
N         0.97722111338506   -1.15020435074037    4.23260973691980
O         1.07958040650513    1.05546984093541    3.78060991045441
C         1.46496881101082    1.82241531135462    2.62399038101832
C         2.76683031468633    1.63982527610504    1.82451268634785
C         2.80098129461105    0.60852422963327    0.66928449974913
C         3.98422291587124    1.45933274353768    2.77114370710160
N         3.78046977893825    1.74230534545955    4.10194804199472
N         5.01101309961683    1.09303846633564    2.08144052742981
C         6.37752346382362    0.81861902573861    2.55028806650120
C         7.30730664131595    1.32228661420254    1.43417036473937
N         7.23753167104001    2.76583313944508    1.19669063400727
H         3.23074090078628   -2.84059542534183    0.71607765146440
H         4.57540048185053   -1.52308956100249    0.73073134219267
H         3.34296521037708   -1.72093731004802   -0.57880865350876
H         2.61489657088510   -0.87893646457889    2.21181261619930
H         0.73451712864710   -2.01738174877687    1.16811433806276
H         1.09611005485060   -1.23769270797137   -0.39583838541578
H        -0.86402225117935   -1.33195582730319    2.37790915133633
H        -1.12127935516441    0.39256441741307    2.54061467062947
H         0.61296585775982   -2.11501784250983    4.22109039894815
H         1.55394347026298    2.85705334287295    2.98557570318066
H         0.75427804448255    1.73572560471093    1.80043567773933
H         2.91986003542877    2.62239049324968    1.34314661390024
H         3.82702914329713    0.61462355941736    0.27658888959947
H         2.11957929266758    1.00363195971687   -0.09842316375952
H         2.84030852885138    1.70992380117172    4.49466280462118
H         4.41146692294742    1.34541775525232    4.78735473306891
H         6.46758071985157   -0.26030208815403    2.72480155783676
H         6.68508220499805    1.38906019116383    3.43518455930744
H         7.15416948949095    0.81746284341283    0.47380142341066
H         8.33291609377232    1.06002773919524    1.71318297300420
H         7.56969966781090    3.25705566601722    2.03020111491246
H         6.26469779025437    3.01476546682514    1.03530856600576
