39
 energy: -54.517063823404 gnorm: 0.113213357844 xtb: 6.4.1 (79825abcba525fcdf90b791dcacef51065a7a4e7)
C         2.78005330046483   -2.44061296762374    0.33477674049916
C         2.03043638451228   -1.28403332749470    1.00405858357592
C         0.52076492419930   -1.25921915920272    0.72019018874634
O        -0.11065380537829   -0.03893807251974    1.09548070130794
C        -0.43493049751990    0.08157178607934    2.46579368665452
C         0.66589235132700    0.39779065194587    3.46082096953773
N         0.93440958559803   -0.29676503115932    4.51891554790431
O         1.44829466732616    1.46577559106119    3.28463302435678
C         1.89248708096060    2.07608129010959    2.05796339371231
C         3.01984415146857    1.21143366052824    1.46737249186455
C         2.74846333024951    0.00315495502816    0.53693425995150
C         4.11124660225502    1.06573439965151    2.56206196487644
N         3.89759913659308    0.29146411522389    3.67897259629913
N         5.25304319622619    1.44156840539544    2.09386387192722
C         6.42885249392634    1.48531880297023    2.97592569676763
C         7.26438863155399    2.69574702808610    2.52799778541011
N         8.04098085650522    2.37426090610571    1.32856336156294
H         2.29506443214729   -3.36314657549118    0.66927859680294
H         3.81545421977140   -2.30336523879255    0.66506577351449
H         2.67012193008516   -2.26933070268298   -0.73410787338055
H         2.20910835975586   -1.42958414389806    2.08210718624863
H        -0.03598114482169   -2.10435299745478    1.11871341681950
H         0.34076336304772   -1.19516450216007   -0.36041471952509
H        -0.83111568789662   -0.87026185194251    2.83959016854576
H        -1.18801954077840    0.86891851250359    2.50907760659828
H         0.30706480064633   -1.01712706925725    4.90775576352250
H         2.27081873502102    3.05533946316299    2.38515581110165
H         1.07871324175115    2.11402587476349    1.33189785759233
H         3.51888477861839    1.88907804315827    0.75160551754242
H         3.69814321277223   -0.41274972987701    0.17340621379697
H         2.20132443560782    0.41946423019011   -0.32162236557933
H         2.98744907213320    0.34915002955509    4.13446774912071
H         4.73147464169554    0.10420961286888    4.22215479204870
H         6.99982469435527    0.55012838884387    2.93069644091643
H         6.10799557074553    1.44542603746577    4.02401764104453
H         8.05276663448553    2.94539948651685    3.24684429952035
H         6.66458614244150    3.57793461303612    2.28206172596521
H         7.36757583161048    2.02218491242466    0.64376920333637
H         8.74815716126245    1.73611912303957    1.68506578137317
