39
 energy: -54.524256871540 gnorm: 0.113675519744 xtb: 6.4.1 (79825abcba525fcdf90b791dcacef51065a7a4e7)
C         3.58189375424031   -0.85290307479733   -0.28902336366157
C         2.65377765620924   -0.17617714533304    0.72497008777484
C         1.33337356846882   -0.91744019414062    0.46541837267591
O         0.13967357887032   -0.47535971457085    1.10437353671603
C        -0.02965900886743   -0.82939069533248    2.46210113071262
C         1.05491350907969   -0.47793149238834    3.46313234949417
N         1.54870946374982   -1.38166327608372    4.24639965076197
O         1.60893973462987    0.73164248865578    3.58049137764282
C         1.23045012513950    1.70360309600221    2.58724592736566
C         2.38266609893715    2.15373364508854    1.67229896352462
C         2.60587791435018    1.33014830692333    0.37955613690018
C         3.77291096645030    2.31014844762045    2.34571283226320
N         3.77150143338294    3.06962518445252    3.49280574952558
N         4.78582020059769    1.71215130669756    1.81602010159831
C         6.09184223441917    1.54440616035787    2.47072817267229
C         6.25838072255791    0.03806815481020    2.72977889813411
N         7.64820238751848   -0.28400609332062    3.06107281966865
H         3.63661806440324   -1.91073892373185   -0.01304778020653
H         4.55257240978429   -0.35050603096083   -0.21579079336642
H         3.18158528834015   -0.78793284473318   -1.29871086102881
H         3.01794238647374   -0.44263661124631    1.73079359073178
H         1.50325934260129   -1.98095089512796    0.61747749063282
H         1.14644501554542   -0.80881290835169   -0.61043866446710
H        -0.14721590236514   -1.91848422209097    2.51434533920648
H        -0.91661290926869   -0.36969960043486    2.89905461997675
H         1.18277258104608   -2.33670550574768    4.11349291112748
H         1.00630539113297    2.67002345706234    3.06151075200562
H         0.39350864386191    1.44535617590666    1.93634170828332
H         2.06174971964528    3.16269396162744    1.35673983465118
H         3.48070773735868    1.76403770287969   -0.12386616073039
H         1.72660563100650    1.46074031486517   -0.26822457914932
H         2.94394936329681    3.06101545040104    4.08800326219799
H         4.66184089681460    3.10546291097553    3.97391987181608
H         6.11384602542908    2.01079427957606    3.46301542949859
H         6.80080484752163    1.93857557537221    1.73246006104618
H         5.82384242786967   -0.42213122730196    1.83535196729318
H         5.66206994913347   -0.19345975888448    3.61821054574202
H         8.29579215458198    0.03204479071146    2.33504650932154
H         7.81333580053938   -1.28741500255608    3.04321917911727
