39
 energy: -54.526919327299 gnorm: 0.110631113975 xtb: 6.4.1 (79825abcba525fcdf90b791dcacef51065a7a4e7)
C         3.68179588341172   -1.12789737050662    0.06725280205861
C         2.55545851942700   -0.40086663944572    0.80909552917048
C         1.25901446147745   -1.09089069312832    0.35809159336840
O         0.16588399760626   -0.45081282349866    1.00923260279339
C        -0.12945445430000   -0.69772900079143    2.36910143860366
C         0.83210913850430   -0.35791942080113    3.49240436907648
N         1.21909870795789   -1.17558375940834    4.41746507840795
O         1.15425666641909    0.91685294112265    3.72684792351244
C         1.23764946295237    1.95669365805441    2.73373401284550
C         2.58216568625024    1.87716238028170    1.98989398783025
C         2.59598644782030    1.13443360264450    0.63067978119344
C         3.80604984086305    1.47592844199810    2.85698770165281
N         3.75544726152344    1.91045732452100    4.16130863443730
N         4.89908599276355    1.16875300327899    2.24455377611660
C         6.19235337927947    1.09789174835465    2.94091058127630
C         7.23214559552689    0.68674504647403    1.88559684982388
N         7.19513684853522    1.52211727936038    0.68315128739659
H         3.83277742659121   -2.13604242786734    0.46602851235649
H         4.51833491199509   -0.56545944901018    0.49602883897540
H         3.68911960776211   -1.04521912353953   -1.01766539936434
H         2.61001335029697   -0.71884608704634    1.86323515600061
H         1.32018011531114   -2.15879265877554    0.55527757016119
H         1.03084169405951   -0.96025275118509   -0.70731041703306
H        -0.34464302450345   -1.76399091545793    2.50857612176120
H        -1.05761400756302   -0.13691665605928    2.48285915007972
H         0.90838674164888   -2.15648190335275    4.34692033464180
H         1.19032118428935    2.81613860664946    3.41802247488637
H         0.34714826352839    2.02561307688807    2.10675991095102
H         2.70573773610790    2.90665769667483    1.60853438765820
H         3.48387416861811    1.42789128398998    0.05400031212467
H         1.70819689488744    1.42496974632957    0.04997992363244
H         2.88868629023773    1.90794205640373    4.69786779051842
H         4.56371192293037    1.76154951683263    4.75291171333511
H         6.19441855858361    0.39990777038529    3.78675344303213
H         6.49325901570492    2.11523905815571    3.21929443010134
H         7.06731900283816   -0.33076838342737    1.51397183832347
H         8.19667088129033    0.74507559687259    2.40017534366842
H         7.75790462299212    2.36330674414298    0.83170292114527
H         6.22220284347014    1.81806098915563    0.66785491636228
