39
 energy: -54.529534875858 gnorm: 0.103973465155 xtb: 6.4.1 (79825abcba525fcdf90b791dcacef51065a7a4e7)
C         3.52081238867476   -1.65210590045365    0.55078833962501
C         2.46062666102466   -0.66182882427512    1.04363486168932
C         1.08461231822927   -1.01054010252931    0.45602111492773
O        -0.00375187112158   -0.27904544527595    1.01189652442189
C        -0.36866200063481   -0.51949940735357    2.35594197192760
C         0.71153376788157   -0.42099999051246    3.41677163506050
N         1.00062433259921   -1.45166122543401    4.14357098765243
O         1.41042473637730    0.70339712593028    3.59303830196502
C         1.42746679810654    1.81575947866233    2.67823893533227
C         2.73610213744400    1.84608317133947    1.86959741584860
C         2.72362763478122    0.82389146466876    0.70586686886265
C         4.02669526647061    1.81010002619974    2.73203997520621
N         4.16139079313769    0.84445013588401    3.70261014034627
N         4.96127861225548    2.58591679681186    2.29750299213958
C         6.31652401879408    2.34994528667668    2.81721635882048
C         6.98754567161127    1.07625946250757    2.27744706898115
N         7.20320433523404    1.10841826322888    0.82915535362698
H         3.31257764151287   -2.67047483446682    0.89391652363071
H         4.53545904912761   -1.25227839463944    0.65380757194349
H         3.38172172018986   -1.68573172415970   -0.52784965605553
H         2.32268108443840   -0.73126691385147    2.13516904658034
H         0.88517809210440   -2.04607597658927    0.72234723820307
H         1.08634695228952   -0.76792687127560   -0.61418743601813
H        -0.84420068938522   -1.50724962967145    2.38571176224747
H        -1.18801784720274    0.17463706347991    2.54505047814536
H         0.35526528068327   -2.22604292436386    3.92557020324924
H         1.33317565835828    2.73819954824254    3.26929712193269
H         0.57917488201402    1.85072399886966    1.99266099459705
H         2.82482945174822    2.87918018785695    1.48827888665762
H         3.69531730579024    0.84353850626876    0.19356383011879
H         1.95216415528073    1.12895186814334   -0.01633539287383
H         3.32095567421837    0.46352460255416    4.13590124418060
H         4.94155796762906    0.96616739579023    4.33663189559895
H         6.40367899371827    2.50778025392010    3.89894098865878
H         6.86261526203382    3.19417069764540    2.37891836317716
H         6.52431266567370    0.15270144487501    2.64222412561094
H         7.97140704231088    1.02271748155364    2.75457657208305
H         8.01830464221944    1.65347870968916    0.53778708225944
H         6.45949701080152    1.69037813177265    0.45147908690069
