39
 energy: -54.526099612556 gnorm: 0.109388413498 xtb: 6.4.1 (79825abcba525fcdf90b791dcacef51065a7a4e7)
C         3.49688579657563   -1.87081298956922    1.11529768816418
C         2.39502103174433   -0.80807219532899    1.17867133102097
C         1.00951265395782   -1.46006011673137    1.05383852356853
O         0.04099144061296   -0.41608325543209    1.02742853641063
C        -0.45289930282266   -0.04317966526104    2.29803882698936
C         0.50792997084195    0.30587195635438    3.41913411786725
N         0.70517290242485   -0.33835428062359    4.52373404459712
O         1.20915939315337    1.43752163857518    3.31220576750356
C         1.60316049948896    2.09720853829378    2.09397976017291
C         2.83387802713816    1.62444931973400    1.30077099392705
C         2.61685092531392    0.45256926657960    0.31137891386687
C         4.09001921640777    1.27474157118005    2.14371013458096
N         3.83817162761991    1.41940348044710    3.48843120679259
N         5.17311603598534    1.00216737451394    1.49813701711137
C         6.35159349585148    0.44563337008874    2.17926505984117
C         7.14692072068921    1.56828694494605    2.86555951411927
N         7.70938405143141    2.48017721968674    1.86696907275471
H         3.28345170133424   -2.75265096097034    1.72765512361877
H         4.42386089260504   -1.40321035848142    1.46465108803878
H         3.63389948979166   -2.24772202819189    0.10381182024775
H         2.41839948534541   -0.48106047468791    2.23119890889150
H         0.87511305077068   -2.15066548894851    1.88331976227729
H         0.87524187254247   -1.99439287751019    0.10480196593095
H        -0.93832155880568   -0.92433213870196    2.73462712076683
H        -1.02398751908130    0.88070808129072    2.20201201428168
H         0.21153703985954   -1.24213675804319    4.58013020156556
H         1.76594799647580    3.13211385989852    2.42805682607912
H         0.75821896333855    1.95371469440627    1.41846356823775
H         3.12406630530523    2.48592502007492    0.67290463033521
H         3.53788879795039    0.33983607496767   -0.27684017268925
H         1.76627791325831    0.64542387259177   -0.35879010567424
H         2.88172970422365    1.40172284973706    3.84068519207684
H         4.50092299641745    1.00773622412411    4.13399312208729
H         6.85323554813243   -0.14869906296735    1.40611549309823
H         6.16540761194405   -0.31281720203905    2.94941105572454
H         8.02912651997146    1.15937775713044    3.37064637336754
H         6.49626707062657    2.20221657202236    3.47653050968848
H         6.96426245839203    2.77803774782005    1.23258134593988
H         8.49375116941728    2.10860709543632    1.33676052723576
