39
 energy: -54.522477018852 gnorm: 0.103887844822 xtb: 6.4.1 (79825abcba525fcdf90b791dcacef51065a7a4e7)
C         2.69755897697504   -2.71928211290103    1.39998957835647
C         2.12239006678298   -1.29948657513851    1.43001517970814
C         0.66099862814971   -1.29239025275578    0.95610625847895
O         0.02095227153601   -0.02163206427122    0.89181930034024
C        -0.60808999079085    0.32200243815735    2.10987383629201
C         0.28884806382342    0.50051649269911    3.32046026213631
N        -0.01128583696491    0.16602209477323    4.53376417872007
O         1.47929914102927    1.09601110581265    3.21091654955245
C         1.84115672485545    1.72882569774979    1.96869953335643
C         3.06122505877350    1.09407553445446    1.27886434212624
C         2.86002453646774   -0.26023554598844    0.55453003691808
C         4.36195090018763    0.88897208706020    2.10152920666500
N         4.33007345598940    0.29769955193731    3.34330602468372
N         5.40638780923460    1.39887916576703    1.54179140606925
C         6.76648161152556    1.26525617032523    2.08471348495560
C         7.34523611221571    2.43538018372643    2.89696316029174
N         7.88367550966416    3.53206089422497    2.08920937924462
H         2.16890842471837   -3.28233237338349    2.17566796008616
H         3.75220259846274   -2.82019462277114    1.67842510586765
H         2.59142605600507   -3.18951333954232    0.42451265214225
H         2.09557641165624   -1.03556790604306    2.50002708731853
H         0.02445636653953   -1.89246380266095    1.60245279818794
H         0.71574103742443   -1.60752423801715   -0.09361007360786
H        -1.18419898238903   -0.52558778070766    2.50021093435022
H        -1.15843135360981    1.24846574356506    1.94337576927496
H        -0.89198958007622   -0.36387794333384    4.61889074475522
H         2.13937066096760    2.74169049014650    2.27579830429691
H         1.01198600215895    1.79428889017829    1.26227947661671
H         3.42443397836369    1.90171303888103    0.61828372308963
H         3.89948470988532   -0.46164802078906    0.26131202106216
H         2.28382013047541   -0.07622787598127   -0.36412307190285
H         3.51971421397517   -0.10893896342776    3.80928847106472
H         5.22912915421846    0.00419934852188    3.70526732036154
H         7.25003576846083    1.16506274042802    1.10554409018444
H         6.85063367309563    0.30487267756692    2.60779979634049
H         8.17395093787419    2.12253636415251    3.54191820687754
H         6.59064422675236    2.83201914611062    3.58381912743536
H         7.15654751813856    4.12646816426167    1.68382098406989
H         8.41547841041137    3.20919023164157    1.28462411707731
