39
 energy: -54.521285940799 gnorm: 0.108422360065 xtb: 6.4.1 (79825abcba525fcdf90b791dcacef51065a7a4e7)
C         2.60914605500518   -2.71225688580740    0.87083293179750
C         1.98168549284855   -1.36186447772755    1.23176751333063
C         0.53493358369745   -1.29481089896902    0.71920758686623
O        -0.08375981537760   -0.03175440827519    0.94398591276741
C        -0.55309021486608    0.18957217396767    2.25858820862917
C         0.35070298052416    0.47975474988064    3.44215761737352
N         0.06874030408967    0.44961809791678    4.70456091085329
O         1.58070792008674    0.97361522109310    3.27791054641448
C         1.99530326970256    1.66699315091061    2.08550286464326
C         3.22051915587479    0.99491738807310    1.44168043756027
C         2.89730632855218   -0.27708519105448    0.61897561253738
C         4.46399870587791    0.86048331661780    2.36169061253113
N         4.27038999221873    0.56426306227735    3.69112594199297
N         5.54567940971116    1.03127188089872    1.67981215578091
C         6.85095533377254    1.14453403296741    2.34757042303943
C         7.14040568491210    2.61616286446777    2.68583601555765
N         7.70102690568394    3.44245908176760    1.61437432626114
H         1.92081346057257   -3.48972649803001    1.21711777946789
H         3.59161838264160   -2.78278755522835    1.35016204543700
H         2.71965674758257   -2.79896636282786   -0.20815070690148
H         2.02497010293347   -1.31705121671327    2.33241083735704
H        -0.01823570069067   -2.15147106595846    1.09759265669154
H         0.60116105706904   -1.37669665398855   -0.37309236222621
H        -1.27544550872775   -0.61540160989779    2.43995475342357
H        -1.23267713269338    1.03273552676866    2.13143218038942
H        -0.74437859864188   -0.09592030990260    5.02845156721306
H         2.41259327620606    2.56800274939870    2.55792963535846
H         1.21185814361768    1.95461524992504    1.38241959956340
H         3.52486220184721    1.76448745724828    0.70976306765097
H         3.89768862826556   -0.67628927475948    0.40242863684404
H         2.48362023545000    0.03670924564117   -0.35065871870973
H         3.34848736911462    0.47257870730624    4.11640957273671
H         5.07988909106225    0.83211314887401    4.23741070836094
H         7.73520532516283    0.87219170377381    1.75887045329497
H         6.82419252624948    0.60635476424249    3.30291546328566
H         7.76492007457840    2.61244274195569    3.58615511062642
H         6.21595576602770    3.14563737906382    2.93793042543989
H         7.14717361557731    3.57901805167666    0.76527300650260
H         8.63628316509172    3.19128525632046    1.30352923008296
