39
 energy: -54.526812562709 gnorm: 0.110013607336 xtb: 6.4.1 (79825abcba525fcdf90b791dcacef51065a7a4e7)
C         3.15002890742759   -0.54787202324898   -0.77743855109358
C         2.24258010202563   -0.05973990176562    0.35649437680293
C         0.85443709949061   -0.71773933313319    0.33647652535112
O        -0.05692649279615   -0.25705323037437    1.32935277317499
C         0.20576408917883   -0.87721347272704    2.57186258245148
C         1.59557316055068   -0.80862993812566    3.17652090589450
N         2.22097898427363   -1.83115222078856    3.66374672352205
O         2.08742439272443    0.37887027604415    3.53944381787001
C         1.63310418457672    1.58402046138762    2.89469229627670
C         2.52146005107635    2.06008423607254    1.73213723661677
C         2.12247250409940    1.48174400905476    0.35169098578196
C         4.00736934958072    2.02548826395282    2.18114646752544
N         4.57224995804447    2.94629057550448    3.03300446901041
N         4.70327791928277    1.08590393642283    1.63612110135341
C         6.11952578746135    0.85452401972234    1.95733748177332
C         6.14122465268830    0.16847954059897    3.33311677638886
N         6.54694431621763    0.98538076778474    4.47904682845980
H         3.23010419173645   -1.63950019607963   -0.76695834245216
H         4.12339118807586   -0.06657899791274   -0.63285036081349
H         2.85586736804462   -0.26977623775591   -1.78742298692817
H         2.70906248781620   -0.31849209606620    1.32124253484276
H         0.97802975027896   -1.79812971633843    0.31368084996878
H         0.44211468282658   -0.41079463874299   -0.63305208077949
H         0.04184656993888   -1.95228158625216    2.43032320090753
H        -0.51237528391019   -0.41110727626279    3.24710501046764
H         1.77373515746882   -2.74599202547169    3.50028187139614
H         1.67606879580549    2.32714997329938    3.70404319076752
H         0.65157579925029    1.53282719314148    2.42054031068204
H         2.23237416843325    3.12163441051152    1.63160668267271
H         2.87829235805888    1.89451594399703   -0.33049441483077
H         1.06659227740388    1.73563574454361    0.17719225517669
H         4.15234369870243    3.78947601764249    3.42273985103526
H         5.40137905953401    2.60415376714358    3.50305429430203
H         6.71689491366471    1.77385523746428    1.93251240739680
H         6.45160501441789    0.09503896787333    1.23904564409540
H         6.80226559537370   -0.70099763608001    3.24570483975921
H         5.12656092473518   -0.10666077758818    3.63849822807757
H         7.47497650936114    1.33184707028469    4.22391505562642
H         6.55835989264126    0.33820507712394    5.26355339074280
