39
 energy: -54.531043156706 gnorm: 0.096566965789 xtb: 6.4.1 (79825abcba525fcdf90b791dcacef51065a7a4e7)
C         2.47439453913129   -2.66799832837347    0.65392071772320
C         2.03417500717212   -1.26412305517895    1.08156678417235
C         0.53320648270625   -1.19655288323672    0.76089141266686
O        -0.16968071565878   -0.03523806765800    1.19207118796274
C        -0.42523555280004    0.03939012100062    2.58007624739173
C         0.74276398761139    0.49522093258139    3.43440637906708
N         0.97430196821058    0.10032423929724    4.64457992701453
O         1.47690561612211    1.54353242981934    3.05248165491566
C         1.82622394055922    1.80650828209613    1.68014104584306
C         3.15072622874532    1.13922215396065    1.27054365349456
C         2.96479356834533   -0.18292252108107    0.48526482997175
C         4.25333405898338    0.90692602058516    2.33873235943615
N         3.90939042528335    0.28081792710294    3.51445362867579
N         5.42830809378519    1.25133906207483    1.93256024757914
C         6.52627243170234    1.33268158451660    2.90741016914612
C         7.03700698882917    2.77549726934709    2.76136341636392
N         7.92021144991017    3.01002383890838    1.61679410195797
H         1.93371648635535   -3.49578003839592    1.12362129709302
H         3.52331361522441   -2.88870626438986    0.87984022673097
H         2.26330262460210   -2.74693033588360   -0.41057295509735
H         2.20036567590797   -1.22817158709374    2.17078010818401
H         0.01025561890531   -2.03884918224117    1.20821399862936
H         0.42209600805098   -1.23809760607950   -0.33004352086377
H        -0.86059563020807   -0.84544930367532    3.05986222627307
H        -1.24511194816394    0.75822602267830    2.58309610516365
H         0.26616682342707   -0.58949940921663    4.93846360581955
H         2.03916038547377    2.88338040660866    1.74449004495207
H         1.07818270818760    1.46803567538183    0.96131601146104
H         3.59939270805121    1.86071038662990    0.56434330391475
H         3.97055985406205   -0.62342653284508    0.44769316318167
H         2.67469702344032   -0.03036806402588   -0.56467088076222
H         3.08500883213423    0.62453235608082    4.00581095354193
H         4.64900502265635   -0.06010046525937    4.11628782387500
H         7.38469003445595    0.68872116451076    2.68142290214227
H         6.20936190207223    1.21519539232434    3.95086693905885
H         7.64373713637287    3.05787478262480    3.62897393109180
H         6.22397530634546    3.50019044827878    2.65044999605768
H         7.56695106212978    2.54037983520873    0.77952683285162
H         8.85106717488180    2.61093164049969    1.70980094317314
