39
 energy: -54.520557394770 gnorm: 0.114845578127 xtb: 6.4.1 (79825abcba525fcdf90b791dcacef51065a7a4e7)
C         3.59575695369972   -1.72025283796389    0.62376018635894
C         2.57644174561406   -0.70346445367271    1.14785757360570
C         1.20333422921274   -1.18318507765797    0.65313660920354
O         0.18695886699435   -0.22270276068411    0.92345746038016
C        -0.46799708746890   -0.47469153306745    2.15022965864191
C         0.32102673060903   -0.22940992606256    3.42269299086050
N         0.11755897698381   -0.89526463482950    4.51324863135089
O         1.30837244485853    0.66400050165323    3.52639272803679
C         1.50458208194078    1.81114950848187    2.67783557028038
C         2.82332420730907    1.73321724087770    1.88904353105359
C         2.70728857732308    0.76591982045950    0.68481275004582
C         4.07573694510375    1.45480620091297    2.76350465301426
N         4.10305797169523    0.39423785709900    3.63933421079888
N         5.11866706393629    2.06336116724238    2.30950274645864
C         6.40724469555802    1.72400960736103    2.93150183822170
C         7.39404428418157    1.43491766256767    1.78845811371268
N         7.33462632824698    2.35659118549426    0.65176151015267
H         3.30365714460778   -2.65055218883324    1.12114813787398
H         4.59011212266632   -1.32834801506450    0.86386694671036
H         3.39702111859177   -1.79866148651422   -0.44314795960771
H         2.63782592435510   -0.79557785515744    2.24469148198518
H         0.86845883032662   -2.10716945224874    1.11912964205970
H         1.30071393574268   -1.39810668805658   -0.41856130924303
H        -0.77929177947505   -1.52509384544282    2.10099169864591
H        -1.33490239892565    0.18026052471883    2.24212335007083
H        -0.48477959542148   -1.72739222769634    4.42142503823831
H         1.49146039890248    2.72027988696829    3.29625780576336
H         0.70488762408754    1.89313965388152    1.93986185443201
H         3.01776332075202    2.75409626981587    1.51412321147877
H         3.64976816091658    0.88749419903082    0.13347515065318
H         1.82691809311595    1.18218299665829    0.17347464851607
H         3.19126696100276    0.13214977793855    4.01232701733139
H         4.64282968729667    0.41725744003228    4.49582477848404
H         6.44078657591348    0.89706490555485    3.65099711218765
H         6.74238899548057    2.53990598123330    3.58344410974866
H         7.04165890281210    0.51029712777274    1.31781180683099
H         8.40008152966360    1.33560453158029    2.20861102427764
H         8.07279548236964    3.06443108830967    0.67282908959115
H         6.40003564216444    2.74976948898530    0.57195983809640
