39
 energy: -54.523191558197 gnorm: 0.108258211627 xtb: 6.4.1 (79825abcba525fcdf90b791dcacef51065a7a4e7)
C         3.16148440613047   -2.33439686142499    0.75894561891976
C         2.31658339199217   -1.17137404082542    1.28909688953504
C         0.94401308174766   -1.29508302457689    0.61008895759334
O         0.11233406331724   -0.15071398343650    0.77546130089607
C        -0.64913418057784    0.07475465641187    1.94454883527428
C         0.01864275964509    0.19279104032624    3.30176140082079
N        -0.61358251207685   -0.11299134562977    4.38843594621558
O         1.17973480753686    0.80744923227449    3.54227740090041
C         1.80318742319064    1.74010814404982    2.63897651839332
C         3.06328621218639    1.27878267742030    1.88619706952641
C         2.92745048066685    0.16771935239589    0.81550233637366
C         4.36129191729448    1.14278285891219    2.72727839905739
N         4.21786721056199    1.06979146093461    4.09356191212465
N         5.45547078468595    1.30457633937274    2.06338417269382
C         6.71362140453140    1.46865259658900    2.80676203355762
C         7.57399512760127    2.47999518579752    2.03162349536651
N         7.81792551682708    2.20326683580886    0.61422759874773
H         2.72262726976918   -3.26413407953424    1.13466768543982
H         4.22110411840117   -2.40425544127334    1.02784836594082
H         3.04300826574550   -2.22685524078280   -0.31731412830462
H         2.15786179023744   -1.22797792526132    2.37854673172530
H         0.44322736378802   -2.19145102503560    0.96894300929442
H         1.09230100278869   -1.45455596903649   -0.46545258106061
H        -1.39389270114826   -0.72924079606510    1.98454678213092
H        -1.26093891950302    0.96280293225512    1.78331395844090
H        -1.44518952347090   -0.66366917646243    4.12601763539621
H         2.04517266758777    2.58798101132908    3.29600849233816
H         1.09478966313988    1.91832360525123    1.82826653902615
H         3.21874232612103    2.22004502873828    1.32903965077971
H         3.97492295189946    0.03082290318143    0.51370437377069
H         2.27370821121810    0.56892024987950    0.02717959264956
H         3.28308808246658    0.83074267617479    4.42253043748126
H         4.96353559926023    0.89010777872478    4.75473655758713
H         7.27250928154039    0.53165825452779    2.91776647993965
H         6.55324417048842    1.81357456264793    3.83552113800635
H         8.51478310869783    2.40184260628484    2.58787585252219
H         7.18445116933214    3.49651081565108    2.14761479906908
H         6.94113902096188    2.46130019534202    0.15483768010084
H         8.03957518810642    1.21507597982985    0.52059271761627
