39
 energy: -54.521445428603 gnorm: 0.109408627851 xtb: 6.4.1 (79825abcba525fcdf90b791dcacef51065a7a4e7)
C         3.63077450182912   -1.14296854190189    0.39125840335298
C         2.44709105513774   -0.34889128772028    0.95328606095733
C         1.16682521571831   -1.15228421159096    0.67799664702367
O        -0.02337057845155   -0.56585235746994    1.19582890990292
C        -0.25688828257663   -0.78228268132436    2.57280502141158
C         0.82468661057788   -0.43079565067312    3.57706470951580
N         1.41872034643614   -1.31969292656479    4.30580265234150
O         1.31499407151325    0.81127697019177    3.60239927027389
C         1.20450909745959    1.81919599943187    2.57946680135891
C         2.45676047017811    2.06413580235991    1.71968868528879
C         2.44406565140790    1.12547178885052    0.48759724320502
C         3.71860323736643    1.84936728722343    2.59852901830240
N         3.62012077680103    2.41317860469094    3.84954753429727
N         4.82876739149328    1.42471921916591    2.09716095057412
C         6.09076207436311    1.03254793186584    2.74217716176233
C         7.18772386774357    0.55256367024711    1.77771537105374
N         8.04398540553082    1.54649512608030    1.12655623781413
H         3.69805998499371   -2.14750809851050    0.82084764669223
H         4.62197775823111   -0.68723099873129    0.49026480518348
H         3.57009889263898   -1.34574329680444   -0.67604555013393
H         2.65452881505327   -0.28668618530308    2.03421051519519
H         1.31579298679411   -2.17683911414957    1.01136440059473
H         1.08310173869376   -1.12443408086145   -0.41581564078061
H        -0.50875071402087   -1.84154000380032    2.70400376895980
H        -1.16819112298216   -0.20585302269058    2.73463066633698
H         1.14730560361226   -2.31280701301766    4.24466213868943
H         0.94940386876950    2.72776830809984    3.14387274401122
H         0.36959110547956    1.52569210084044    1.94102625890216
H         2.41438227021144    3.08507339250580    1.29962145244716
H         3.25615446704000    1.21344942638971   -0.24710883132596
H         1.56451624126879    1.28490854091229   -0.15331360419502
H         2.75263539991649    2.39381036719310    4.38459024270965
H         4.37294569200503    2.14001673915636    4.46930297221119
H         5.89056434643863    0.15874810851578    3.37386603147675
H         6.55625508740271    1.76248247263736    3.41563777203445
H         6.70799577870532   -0.07534341023870    1.01863684141224
H         7.78036182068735   -0.16880084286585    2.34948107549742
H         8.71418294703729    2.00911826751587    1.74557963138714
H         7.54027783309016    2.35869963706807    0.77867729973490
