39
 energy: -54.520960604787 gnorm: 0.107800837361 xtb: 6.4.1 (79825abcba525fcdf90b791dcacef51065a7a4e7)
C         3.69044542823380   -1.68447878014294    0.19206654217184
C         2.68931211069043   -0.72335379174164    0.84130533048689
C         1.25206962297082   -1.20766702646415    0.59619380192086
O         0.19068175148852   -0.34694334508258    0.99772716768664
C        -0.28894778651159   -0.53807765765462    2.31334826014104
C         0.42266671801726    0.00228823303106    3.53951876912907
N         0.31767100313780   -0.43518516569269    4.75264125590272
O         1.11974006824136    1.13727005045681    3.44106863921027
C         1.38167818195882    1.99665337857288    2.31530354526441
C         2.76582123114233    1.77913494186556    1.67955134645010
C         2.88128898299062    0.77391910074230    0.50673054868758
C         3.88839500450420    1.62525243067077    2.74109782066857
N         3.67844750233659    1.68550028327863    4.09937662418660
N         5.07757177260206    1.52307655647317    2.25162992837403
C         6.29716591869532    1.60311927795657    3.06934500371566
C         7.44217852836689    1.52692403192177    2.04609676989148
N         7.34908877775729    0.49597594649327    1.00996353049040
H         3.34713457741147   -2.70245373474712    0.40192030663431
H         4.65372165063076   -1.47451043242082    0.66955482360771
H         3.80546656829727   -1.56659410730100   -0.88348456081462
H         2.77540674964596   -0.84268243493900    1.93384636018857
H         1.05785238825257   -2.22693069332645    0.92241366602458
H         1.06380093130535   -1.12523988649596   -0.48175387798445
H        -0.21883504741481   -1.61772055662834    2.49259448711236
H        -1.32159491552908   -0.18848714743612    2.29443120283204
H        -0.25546126653601   -1.28524610073095    4.86487080154763
H         1.44551444317795    3.02810143397019    2.69103767623773
H         0.59852747596466    1.82129197376581    1.57586986422787
H         2.98053559623416    2.74051365512547    1.17933686844896
H         3.87400494527832    0.96060928212060    0.07466223222116
H         2.19474522625239    1.11035483539956   -0.28400488845550
H         2.85565095311499    1.38776233019210    4.62238195798788
H         4.54854479989431    1.64732258623274    4.61603188789329
H         6.18389669370800    0.86263290622623    3.87027325679250
H         6.45794716245237    2.61141949276055    3.46999121995033
H         8.44777616654365    1.48016784260816    2.47875574012410
H         7.49189599928132    2.45980020982735    1.47533174178439
H         6.42941373565948    0.49396568957799    0.56211461923086
H         7.47987593605480   -0.38611259074515    1.49907677714934
