39
 energy: -54.524852736237 gnorm: 0.105628376066 xtb: 6.4.1 (79825abcba525fcdf90b791dcacef51065a7a4e7)
C         2.79961317384337   -1.72873452010234   -0.09643505592474
C         2.19277826572388   -0.67144217615441    0.83169450496291
C         0.68827585349407   -0.89637138878472    0.61678919508704
O        -0.25862193990559   -0.03302935773820    1.23859593653420
C        -0.40556278638918   -0.21793217473298    2.63202875609772
C         0.90230388306030   -0.13209275908300    3.39622833764687
N         1.35400535198957   -0.97860230961567    4.26424942939722
O         1.68330090839933    0.94610952251145    3.28987557518384
C         1.63109443927322    1.96034179305927    2.26855009448457
C         2.90962360558816    1.80705627959244    1.42640173490992
C         2.65880714272229    0.72187953854615    0.34993395811471
C         4.15156434148089    1.56523916501077    2.32631302003358
N         4.36168772655411    0.34459423879914    2.92506437669264
N         4.99554563115563    2.53822836415133    2.25456557389952
C         6.39854928892713    2.59688597534373    2.69115996109012
C         7.20426783326950    1.34358202343749    2.31176128705689
N         7.16665556730136    0.34568429255536    3.38315158845745
H         2.73874250283364   -2.75740163148114    0.27277042615574
H         3.87928840593733   -1.54951732883396   -0.14296936145218
H         2.35122523551447   -1.82215846470015   -1.08342900811645
H         2.61167991306586   -0.73543700410836    1.84939956431721
H         0.51323462828700   -1.93393033177894    0.89223460247492
H         0.46447590202625   -0.72309097384859   -0.44344569157844
H        -0.84491452050742   -1.14653081589638    3.01588863823212
H        -1.04487314237294    0.54041096060404    3.08494092859733
H         0.70519362105910   -1.74550863962698    4.49786809981921
H         1.63268299627167    2.90951362213350    2.82371368432938
H         0.66791244214811    1.89352801428481    1.75996855591704
H         3.03115557409905    2.78918872778684    0.93526871301938
H         3.49775739835340    0.70316366360664   -0.35917352095178
H         1.81889382482162    1.13751594751972   -0.22590097752350
H         3.56105056772398   -0.10908916765035    3.36361670348244
H         5.20640775429882    0.10768601707982    3.43081338954359
H         6.43494947781342    2.76653727893743    3.77399397562607
H         6.82013951530177    3.46385535267521    2.16803177703300
H         8.20845162212433    1.66409833563023    2.01261125117002
H         6.68539706613908    0.86401547327475    1.47552474492403
H         7.47219416449299    0.74268913919288    4.27500818455239
H         7.80816352823476   -0.38003954797126    3.07297473720668
