39
 energy: -54.519719100071 gnorm: 0.110680104663 xtb: 6.4.1 (79825abcba525fcdf90b791dcacef51065a7a4e7)
C         3.46016760353481   -1.07354867823886   -0.24261352696243
C         2.49239359800570   -0.50920212636032    0.80259775555444
C         1.16560928664424   -1.26079757023179    0.61537434570278
O        -0.00358908588004   -0.75327426264135    1.25099511362089
C        -0.13852504609230   -1.00537192893483    2.63507412811492
C         0.79804135419975   -0.29252659030615    3.59245570611918
N         1.33438016124735   -0.92750145299475    4.58403063385014
O         1.12283198585685    1.00283900641940    3.57438905134012
C         1.17105682138282    1.87363487381510    2.42813984735650
C         2.57292999361549    1.98009174010212    1.80302734202416
C         2.60620874100648    1.01797760662620    0.58954918766106
C         3.81505743042277    1.82704783479665    2.72195584592719
N         3.80442944224327    2.29094676055983    4.01706738336092
N         4.85444293639603    1.35016750085401    2.12494410487891
C         6.10126608635990    1.17632262094672    2.88499979309585
C         7.08085539097918    0.48278733343228    1.92410950945895
N         7.85775772286239    1.53256983559931    1.26118325976536
H         3.44779063720026   -2.16762917276818   -0.27437252846531
H         4.44957553916537   -0.65187557021602   -0.03465541815466
H         3.23318262641217   -0.78960344878509   -1.26818154746368
H         3.01503259407593   -0.70208774900531    1.75388169164460
H         1.38999024276654   -2.29405858537536    0.87044887499400
H         0.94101553783831   -1.09245815467147   -0.44548852043331
H        -0.14282488334029   -2.09909440415015    2.71523917605107
H        -1.11033721969660   -0.58512956049055    2.89566753187163
H         0.93348991145849   -1.82214817794699    4.90430224126786
H         0.77571141738828    2.85373693988139    2.73184732773990
H         0.48533038097689    1.48068957195119    1.67566921380574
H         2.61716997102078    3.02904095363805    1.45905907167585
H         3.60020694621831    1.20036629271840    0.15859307177165
H         1.82536551402277    1.27703120188101   -0.14049803913661
H         2.88560037180649    2.31797417596240    4.45774787887925
H         4.58208181371424    1.98701789736955    4.59008006956408
H         6.00823959505063    0.59516578664587    3.81033154593601
H         6.54931290329201    2.14621927364132    3.13317685447122
H         6.45423393379753    0.04983822834665    1.13638674190515
H         7.82968276770111   -0.17495641566769    2.37702586625089
H         8.53507816386754    1.97744155075843    1.88544366124694
H         7.24889577724858    2.20937454183349    0.80770805970472
