39
 energy: -54.528549787257 gnorm: 0.105139919725 xtb: 6.4.1 (79825abcba525fcdf90b791dcacef51065a7a4e7)
C         3.08490854612077   -2.19798419403528    0.49979872156046
C         2.32321337161350   -0.98910114263214    1.05293740718925
C         0.86824965016338   -1.06695142563924    0.56577742439590
O         0.04849897239717    0.05450489959825    0.88036136715378
C        -0.62595882427351   -0.04626035144218    2.11825826638102
C         0.22394511578079   -0.09798474866504    3.37399411079038
N        -0.06331584721566   -0.84795645393777    4.38843820930507
O         1.24725248860728    0.75425989030996    3.47552496099639
C         1.61353670063403    1.75865720921002    2.51037200228533
C         2.97415206946303    1.49499513046313    1.84212412567743
C         3.01457184823892    0.36695795846823    0.78137028516880
C         4.26704822459655    1.37727912036298    2.69376671346422
N         4.04569809054730    0.64640719152619    3.83808284923271
N         5.31422532955587    2.04820091138960    2.35106545336936
C         6.61785105249723    1.99323246988945    3.02930810371911
C         7.68923399246466    2.39521202130003    2.00244512975473
N         7.79650829394558    1.42454943160745    0.91093328613149
H         2.54648938543697   -3.09324190135286    0.82658978262992
H         4.09757113441733   -2.32349792936088    0.89822516385224
H         3.15374346440001   -2.07920893604644   -0.57959510378549
H         2.23708542470765   -1.01614471598485    2.15164034320196
H         0.47684267007963   -1.95980200369485    1.04812230503281
H         0.79788759544066   -1.01934506143725   -0.52829448789639
H        -1.22114991248851   -0.96619759684571    2.16448410065427
H        -1.21882719741384    0.85988394435122    2.24609052490852
H        -0.83386047083384   -1.51291792556900    4.22180421409400
H         1.75417135959891    2.63818329398872    3.15519139788905
H         0.78667771420553    1.90597607306089    1.81363663025668
H         3.02483445220475    2.40951672936925    1.22434798504675
H         4.07591398933002    0.14259639020641    0.60748530756176
H         2.69757912869000    0.81170571019777   -0.17335947965299
H         3.11745274268818    0.43413030782577    4.20205501445546
H         4.76783802907550    0.85944007985454    4.51527588586768
H         6.85675622981230    1.02794429328749    3.49167061933481
H         6.59808557710915    2.73245797142616    3.83936507860747
H         8.69445448073909    2.53039746697133    2.41700899552626
H         7.51387258078400    3.37286441353599    1.54206845852545
H         6.93535129241148    1.38885688416837    0.36001629436015
H         7.86339136183948    0.46162819469377    1.23144316437013
