39
 energy: -54.523143318019 gnorm: 0.105203060060 xtb: 6.4.1 (79825abcba525fcdf90b791dcacef51065a7a4e7)
C         3.31431044510313   -1.96579029397918    0.44457791991626
C         2.33683873572799   -0.88235204555436    0.91175112039082
C         0.87041264579983   -1.33415650091867    0.83577606900771
O        -0.03999843615252   -0.39750904957314    1.40363320864089
C        -0.19064047454509   -0.41711655387648    2.80875177999709
C         1.00066154028874    0.05564567624883    3.62065078583688
N         1.52549890614341   -0.51603570294785    4.65592822444158
O         1.48422026881390    1.26348481061624    3.31885120118992
C         1.44572951612881    1.85264708770651    2.00511431701144
C         2.71847566375477    1.63181844973588    1.16923211173492
C         2.55451220735248    0.45786301689640    0.17211378401697
C         4.01698447459122    1.42903254796045    1.99596384624525
N         4.05120719050440    1.81537461434829    3.31588720424264
N         4.98266501047032    0.79622632049393    1.42048363579416
C         6.30679007159479    0.62294407112262    2.03622767847858
C         7.26142063294163    1.82533481404467    2.11889273679373
N         6.96505964567107    2.65739468990334    3.28719846207419
H         3.01565694520576   -2.82290684775904    1.05640408391814
H         4.35728265769820   -1.71707219573196    0.66892389737129
H         3.12187686744749   -2.25228228772352   -0.58732735352363
H         2.53404920448856   -0.63827761345859    1.96855442467273
H         0.78227058450702   -2.29154910000032    1.34437075039694
H         0.62937273235538   -1.41559299659705   -0.23168746255042
H        -0.48318523863053   -1.36430115523810    3.27772158530801
H        -0.96803879450374    0.32991457854606    2.97162539946135
H         1.20661457954696   -1.48286593050751    4.82094870146395
H         1.46699474853250    2.91005921023965    2.30605233582430
H         0.46910435289411    1.63548167657363    1.56936062260662
H         2.81620913231655    2.56807325028327    0.59092344064145
H         3.51973710268571    0.34312964995031   -0.33993933529798
H         1.83082907549917    0.73196312854141   -0.60951638441784
H         3.29196096343688    2.40855218281111    3.64884692565600
H         4.36906994642516    1.20780375496184    4.06105860319921
H         6.83040467126444   -0.09500471149478    1.39356653760519
H         6.23733766352644    0.31421467987601    3.08641806152330
H         7.28082433719996    2.48136201654688    1.24147702250694
H         8.30589296716222    1.52414881930950    2.24876590838784
H         7.26788438109158    2.13746690855458    4.11445123637432
H         5.98271125716446    2.81657499905278    3.49712822940488
