39
 energy: -54.523768350522 gnorm: 0.115029055877 xtb: 6.4.1 (79825abcba525fcdf90b791dcacef51065a7a4e7)
C         3.32926501916505   -1.87537159509846    0.92690567569614
C         2.37109045945998   -0.69123235981782    1.09199949002769
C         1.00636470702394   -0.92028108900550    0.42464257713890
O         0.00596258908695   -0.00493808035644    0.86048806818634
C        -0.59588355700669   -0.23564075273090    2.11826116529696
C         0.23582079390921   -0.00840995530915    3.36666760588302
N         0.05004426702734   -0.64552507237008    4.47736317493242
O         1.30914201200953    0.78414625406810    3.42686415009857
C         1.54905181457278    1.81136917177111    2.44617322316114
C         2.93966255784795    1.67675735382814    1.80163577046772
C         3.02725902294762    0.63888720960224    0.65513990423568
C         4.12701416763362    1.47518168429368    2.78158272749218
N         3.87399517755811    0.87383797630540    3.99277891087489
N         5.23917646345759    1.71176568802809    2.17225265278072
C         6.50721566090677    1.54465653013077    2.89794251879243
C         7.54392569299388    1.98627488043530    1.85194917188790
N         7.77039781790901    1.01608410768919    0.77838874621422
H         2.84501670346165   -2.69697353437698    1.46416518141096
H         4.11295428530131   -1.59318997416384    1.63837423997979
H         3.71173550290306   -2.07145401580558   -0.07269667005787
H         2.25769387818794   -0.66494568648441    2.18824204866682
H         0.70583577361980   -1.92600661133328    0.70966309502373
H         1.12238107736597   -0.76969962321639   -0.65613304978935
H        -1.10934173886205   -1.19561927607730    2.25045690459863
H        -1.42251634626559    0.47181525081215    2.18978533341481
H        -0.62590639365203   -1.42315135246969    4.43189082732048
H         1.41422230387014    2.80045278973056    2.90733575877238
H         0.79424899845060    1.80369409691298    1.65810430652160
H         3.20527267511853    2.59180519578270    1.24243587442279
H         4.10876397532964    0.53977732665395    0.48917149937458
H         2.43760583549665    0.98895798092734   -0.20483303186310
H         2.95969808005555    0.90149879803667    4.44274816189224
H         4.60128424903967    0.90898116198644    4.69653672561637
H         6.76513103337881    0.57714037693524    3.34518763900553
H         6.54870744225925    2.29742924360654    3.69459112089663
H         8.52700081864066    2.25947133566422    2.25136565874016
H         7.10798319631426    2.84251737672545    1.32725360818872
H         6.87309587891925    0.72312297873614    0.38418336977562
H         8.29233187971245    0.21745755581926    1.13080568942407
