39
 energy: -54.528869885874 gnorm: 0.098445850901 xtb: 6.4.1 (79825abcba525fcdf90b791dcacef51065a7a4e7)
C         3.71643858119125   -1.43029906414006    0.68956309357921
C         2.54220066082063   -0.54872842400447    1.12721443580735
C         1.19205035313230   -1.09043664272617    0.63330015893793
O         0.11390630801102   -0.21609612462232    0.95228699712957
C        -0.35653475400643   -0.51022182710411    2.25213736023207
C         0.63166584676085   -0.40131135810720    3.39821009498612
N         1.05122914007382   -1.35992465801767    4.15919658289518
O         1.22956457674415    0.76568003753507    3.65205180892881
C         1.26258481160229    1.83764252179515    2.69064427886002
C         2.59512820952612    1.90158619743906    1.92410241481069
C         2.65052545697458    0.93707005692062    0.71334227872780
C         3.88677848396251    1.67341155395536    2.75495049339771
N         3.91344089521317    1.72579189630511    4.12942292956331
N         4.91708564006304    1.41538355686268    2.02279694069996
C         6.18474492406758    0.98321164341510    2.63003827137062
C         7.29538995539696    0.92106560104919    1.56867027895497
N         7.48999873732980    2.19110672851141    0.86566622484426
H         3.58454695126288   -2.45750135055860    1.04401198080437
H         4.61954046064607   -1.01283227984768    1.14794211626630
H         3.90380600988858   -1.39759989951917   -0.38177301095811
H         2.48147363092088   -0.57065944754588    2.22772739786721
H         1.00971135103643   -2.02560429869197    1.15794490525830
H         1.18683643178674   -1.31629672267258   -0.44055764054359
H        -0.93160796864603   -1.44277485818263    2.30019392801091
H        -1.16105795929291    0.20275239401718    2.43473432277517
H         0.54357909177537   -2.25133367673826    4.05260833773530
H         1.13368172520201    2.74385421595260    3.29998872718051
H         0.57891044691382    1.80823991300050    1.84060682109183
H         2.40818369986474    2.92755919345762    1.55941492362960
H         3.61353399218108    1.22236892863388    0.26810036590632
H         1.89406195184868    1.17573242500397   -0.04862695419704
H         3.10564251744594    1.69850348073984    4.75062640133694
H         4.66182075791634    1.17975159022805    4.53835699571022
H         5.97830175334919    0.00129408447337    3.07259354889270
H         6.55970388313582    1.61512086609180    3.44436856688202
H         7.18364743929569    0.17043248182379    0.77830956168920
H         8.23334445552536    0.63741384986131    2.05681528288919
H         7.68135029378986    2.93943307045833    1.53631303118072
H         6.63712251675751    2.48593869614391    0.39652498925837
