39
 energy: -54.525564745234 gnorm: 0.108335350225 xtb: 6.4.1 (79825abcba525fcdf90b791dcacef51065a7a4e7)
C         3.25073025607251   -1.58572237936991   -0.02950981662505
C         2.37915989648576   -0.68634537750252    0.85311484468680
C         0.93514283353169   -1.14506517599038    0.59876115178159
O        -0.09904218992703   -0.32959556218661    1.14106102385651
C        -0.41979648524017   -0.59116983972546    2.49240525460802
C         0.66300635058475   -0.34790952792874    3.52693267444928
N         0.89038956732526   -1.10279569728733    4.55285515738945
O         1.43793317672982    0.73900460287979    3.48341903995526
C         1.57997556537189    1.86137224476508    2.59200829479513
C         2.83143406460750    1.68834724279798    1.71379360767270
C         2.65929100642983    0.78456403386150    0.46766241499670
C         4.10146214996078    1.46063386174141    2.57745317457288
N         4.26457707646371    0.40071338514517    3.43919044973323
N         5.00471702882357    2.29255738201645    2.18223936081279
C         6.25312470453609    2.61865301793944    2.88765735184021
C         7.33164873755732    1.54009939514877    2.69425488546427
N         7.47113245637798    1.20490177700215    1.27535439921564
H         2.78391930469919   -2.57284461868150   -0.10600276793688
H         4.31045742266024   -1.54820222813814    0.24536000079632
H         3.19680994465438   -1.14292923290559   -1.02196317506009
H         2.61547930894401   -0.84712148106656    1.91782216814130
H         0.83588836922914   -2.12558064883386    1.05895254292080
H         0.70267529259917   -1.12857423068294   -0.47357154805630
H        -0.80466018460925   -1.61376448409396    2.58650038003088
H        -1.21350760247588    0.15385730309923    2.55476452686455
H         0.19295000064415   -1.85670683054281    4.64706614144485
H         1.67133835843577    2.71627599083336    3.27752174876374
H         0.64501068758171    2.04776457036288    2.06103054829614
H         2.93872359820610    2.69972146366717    1.28231135186299
H         3.58465540453020    0.93458393641223   -0.10523895549281
H         1.84675962965293    1.17452343319082   -0.16282809341631
H         3.35365609466322    0.07728609230826    3.76291007175886
H         4.91658949672320    0.47336731698099    4.21059222684951
H         6.08347323346150    2.67591917589908    3.96958849791812
H         6.65410984826473    3.58639310727990    2.56249993678527
H         7.14026118252804    0.57513021720345    3.17676065741131
H         8.29016595421046    1.98431888810135    2.98133726095135
H         7.72190717402018    2.03045823117278    0.72586058449471
H         6.65811609839626    0.74504352684675    0.87292176355293
