39
 energy: -54.524832227139 gnorm: 0.112658200527 xtb: 6.4.1 (79825abcba525fcdf90b791dcacef51065a7a4e7)
C         3.38404157041945   -0.82833374875780   -0.55848488030098
C         2.50118825420430   -0.32831950296413    0.58959871415431
C         1.09688506869998   -0.94556870579894    0.50450519023359
O         0.03843681959341   -0.36176661945741    1.25781849167041
C        -0.17749324707695   -0.87742023707511    2.55585979337316
C         0.91461592016697   -0.71958051106137    3.59714207167482
N         1.11708787721702   -1.66080713535448    4.46153248001898
O         1.72848071612732    0.33913544843407    3.62020719916889
C         1.50412359766586    1.54959077893312    2.87257086949976
C         2.52873985865315    2.04256091740373    1.83599523033854
C         2.43800354750626    1.21538422450085    0.52953209270957
C         3.92051395822216    2.03809017435107    2.52423754039346
N         3.92578236473501    2.42458538719678    3.84454915208276
N         4.93690034744348    2.03445476606207    1.72981600211802
C         6.29874899619184    2.09350027401719    2.28150117638345
C         6.84768138152606    0.77758663445245    2.85677593504493
N         7.55938988213631   -0.13346601022519    1.95758417298668
H         3.37748802107484   -1.92110686028565   -0.49541406325056
H         4.41378875700294   -0.46450184776744   -0.47345593055686
H         2.95505771620156   -0.55705988668153   -1.52094016684469
H         2.82437558205876   -0.66383621792326    1.58873633650759
H         1.07331946853109   -1.99778324141359    0.77896354434720
H         0.73406519620488   -0.89277472632587   -0.52979895322357
H        -0.42593096442600   -1.94283645756012    2.47943492761118
H        -1.05518507347821   -0.37293642545915    2.96093338029585
H         0.60356992490975   -2.53989469391655    4.29665665878234
H         1.33439064049716    2.34244159377271    3.61534579658356
H         0.55250796977058    1.48441951331051    2.34245841178031
H         2.19672144510711    3.07967089501309    1.64962877358162
H         3.41651092314586    1.36843335993591    0.05401078712193
H         1.62434042765514    1.57485518140318   -0.11740439016339
H         3.05267243246735    2.41125033534648    4.37055091577724
H         4.84471471421692    2.56006554414712    4.24787031900250
H         6.35992905988723    2.87981431351527    3.04347445298760
H         6.90965742068409    2.48552253202140    1.45921973911120
H         6.01539887275912    0.22517111521070    3.30705301702194
H         7.56517959692694    0.96443590236482    3.66224856826567
H         8.31776128442745    0.41264315765585    1.54163650396897
H         6.96856861595722   -0.47284946655390    1.20249057939402
