39
 energy: -54.513414347772 gnorm: 0.122103048111 xtb: 6.4.1 (79825abcba525fcdf90b791dcacef51065a7a4e7)
C         2.34134650648253   -0.16799466756341   -1.44744072225349
C         2.86807333713840    0.25912924610663   -0.07351781011382
C         2.40884957160167   -0.76950350574759    0.97115109712255
O         1.03979459721125   -0.53691434580095    1.28770958646606
C         0.61621288730768   -1.18204665787789    2.47169376087872
C         1.28843833408813   -0.55638000263323    3.67939356159076
N         1.64858335637463   -1.08941371476981    4.80199940104957
O         1.54682159878294    0.75329896156489    3.63736366951161
C         1.22525604174448    1.68750062091752    2.58933639296372
C         2.43062461834461    2.13654968972957    1.74506830230833
C         2.48600083898298    1.72113381124665    0.25387301601519
C         3.73371031643768    2.05355965190291    2.58519502037451
N         3.71400787564288    2.86096746766929    3.69889762667931
N         4.65108279042455    1.19477350582648    2.29352023336650
C         5.97313656896994    1.31613595090856    2.92591221145156
C         6.45563377160486   -0.11843772227074    3.19626634566944
N         6.65863096125669   -0.93303400404744    1.99613436033882
H         2.95603586316758   -0.92653161801562   -1.94236762127485
H         2.23965156100110    0.68824728228189   -2.12308167980863
H         1.31830068297992   -0.53576077641192   -1.40202964757646
H         3.96618100270827    0.24310081591292    0.02239961840540
H         3.01444255794380   -0.73749789016271    1.87407464442726
H         2.51718666297918   -1.79175095054009    0.58711494768372
H         0.65303517739346   -2.27778995831098    2.44591537975996
H        -0.43950897885538   -0.92007708952544    2.54755393175093
H         1.47086970281987   -2.09932544896331    4.69165533047576
H         1.00433523445127    2.57887840977412    3.19413051401391
H         0.34380333503686    1.34636808846952    2.04389297529260
H         2.27690204902334    3.22797200811992    1.82078159896135
H         3.05684336128655    2.39488089582232   -0.39975140922161
H         1.44338092235671    1.79961118188947   -0.08756347129765
H         2.78860475805424    2.86197186195840    4.12645429946655
H         4.46358591454402    2.68424931230810    4.35644075242786
H         5.84660363423529    1.91324146563153    3.83700521881535
H         6.72659054100950    1.89753208379514    2.38063891874008
H         5.82526507094396   -0.65516424757558    3.91401732778458
H         7.38408647225970   -0.04314594416699    3.77142652896538
H         7.10883222476690   -0.35988104678856    1.27836741964869
H         5.73841631989349   -1.15823641178344    1.62612608323784
