39
 energy: -54.521226147730 gnorm: 0.116520185002 xtb: 6.4.1 (79825abcba525fcdf90b791dcacef51065a7a4e7)
C         3.78858347632115   -1.16896631368253    0.50300903118030
C         2.59933502180484   -0.55244124182819    1.24673286154326
C         1.33198152137644   -1.28933784192952    0.78727289433766
O         0.18309933027018   -0.44911378876245    0.83934758582735
C        -0.33761221548541   -0.33341527930630    2.14812908915563
C         0.58960152436501   -0.44095633005296    3.34420359362444
N         0.74697837816643   -1.49535258063621    4.07738455089904
O         1.20073265200503    0.64127456373109    3.83316417199678
C         1.34605006479327    1.78255384383793    2.96664079122431
C         2.55168483920078    1.95897928994303    2.02713776301528
C         2.48755088949527    0.94080616910246    0.86158611445020
C         3.89421824831325    1.81956615426415    2.79453636712922
N         3.83133870822715    1.68562976168567    4.16228497101679
N         4.94674817173953    1.96713465654339    2.06339727978515
C         6.34513127306611    1.93971092853151    2.51754182294678
C         7.17233654124002    0.81359439772517    1.87606733759553
N         7.55806216628446    0.95219402104661    0.46997430319760
H         3.98302714947966   -2.13758159185292    0.97433700110394
H         4.69540393902815   -0.60965371939365    0.75762427005066
H         3.64822951670780   -1.18694318731278   -0.57583963129472
H         2.73825521372507   -0.62410196372415    2.33799975711400
H         1.25384580631361   -2.31051580331805    1.15350853127631
H         1.41085497727405   -1.41529022502563   -0.29998306103968
H        -0.94891249584003   -1.21630787785893    2.37058452401059
H        -0.96946604007481    0.55522947362497    2.14977793759124
H         0.05010334620378   -2.24532510146053    3.95254036987335
H         1.39518360024428    2.62699002262913    3.66924290136377
H         0.43794570704277    1.97450076850484    2.39275782199725
H         2.51993556377123    2.92598999859905    1.49380103447965
H         3.28982995065014    1.13692778148933    0.13708224903703
H         1.56812111227143    1.03933463234766    0.26598986609428
H         3.06789592810299    1.11801523893104    4.52854376923396
H         4.74597202042851    1.60760039116789    4.58985580749636
H         6.40313180497368    1.95514572774827    3.61254581465453
H         6.77080443601064    2.87646003217010    2.13761974064529
H         6.49439125326486   -0.03930546489374    1.99250849192960
H         8.10919356713379    0.68889205378814    2.42856234920460
H         7.70812248605299    1.92798349220184    0.20222128699881
H         6.87938777088678    0.54194043442618   -0.16682259794766
