39
 energy: -54.526060309036 gnorm: 0.105820379590 xtb: 6.4.1 (79825abcba525fcdf90b791dcacef51065a7a4e7)
C         2.81618861733348   -2.36181201586786    0.78676196264475
C         2.00762533987293   -1.13025858024374    1.20752524311268
C         0.51488730142314   -1.22279655503675    0.85613540016794
O        -0.26149189696667   -0.08566726626229    1.22054017508891
C        -0.52173454757940    0.08952829613102    2.59858805730854
C         0.67657696986336    0.19750705661961    3.52285789028365
N         0.99640878443385   -0.80088672029050    4.28113932047667
O         1.49071039896614    1.25626660953332    3.52440318817074
C         1.80873821657348    1.93160740833240    2.29262746059867
C         2.97491609125648    1.30372727862567    1.50959310359380
C         2.55588837110339    0.15915409258432    0.55373312120383
C         4.30651508133462    1.01047241886043    2.25227629767825
N         4.03173264738219    0.33130459862202    3.41668805827887
N         5.42449885712300    1.39238121113044    1.73418553900172
C         6.64252297799137    1.23471651268226    2.54290905978605
C         7.79513906483572    2.15769188558182    2.11455273203526
N         7.47383110977209    3.49485096892016    1.61070898275656
H         2.45808306167227   -3.30702318130299    1.20689314837859
H         3.88223007834595   -2.25831090530613    1.01660097026365
H         2.73598941214555   -2.37841468251491   -0.29824000901794
H         2.23288741657445   -1.11691072972770    2.28658795960732
H         0.08321643951515   -2.13824899814353    1.25443836587576
H         0.46467574820690   -1.33574668068740   -0.23424600290497
H        -1.09856705952934   -0.81405957777393    2.82981738373945
H        -1.08189755890046    1.01325880113756    2.74647596034533
H         0.37306831846506   -1.62189461520513    4.31388628406334
H         2.19311081792793    2.90153559688882    2.63995051910413
H         0.92754541491842    2.07003948920597    1.66399830371900
H         3.31222580291410    2.15548218892383    0.89209690946202
H         3.40391295119032    0.00571471093728   -0.12768591261382
H         1.72816306201233    0.59352624128339   -0.02590945815355
H         3.10020604198975    0.49785325462923    3.79576109477272
H         4.72770534684926   -0.01316851795092    4.06662633789556
H         7.04367365369070    0.21694699480492    2.46636241863362
H         6.38956413341238    1.45830583220776    3.58648797740379
H         8.47153439696972    1.65829272575435    1.41191743134987
H         8.36210691974596    2.22287431664658    3.04879103554199
H         6.66743058672383    3.77132012981285    2.17609192432677
H         7.11501270498323    3.42196306016353    0.66183916012324
