39
 energy: -54.516620070308 gnorm: 0.113861843553 xtb: 6.4.1 (79825abcba525fcdf90b791dcacef51065a7a4e7)
C         3.12174158946259   -2.24264957546678    0.76399747044867
C         2.25881355726210   -1.13005626021428    1.36817584676686
C         0.85527656440738   -1.36679042306249    0.78994942801163
O         0.01095112857029   -0.21979246823795    0.80129701124198
C        -0.59542663503434    0.19124982519632    2.00992678125825
C         0.27719485049867    0.13120366852945    3.24960852104392
N         0.23532679952412   -0.70797317692219    4.23353053594186
O         1.17911062908196    1.08665094868361    3.48930798329876
C         1.74035473759303    1.93307565403248    2.46800069361173
C         3.01731412057286    1.45730268113406    1.75360452475781
C         2.85671466343830    0.20223886542713    0.86011533335562
C         4.33983561659167    1.31391358989759    2.55429739220558
N         4.18006602268545    1.70106110775429    3.86472462623836
N         5.36799156021231    0.84825624094246    1.92962253583575
C         6.66982808515176    0.78395690521604    2.61047634403013
C         7.42944139411355    2.11336973982251    2.47067053106450
N         7.42141618868581    2.59773992802668    1.08849367524570
H         2.68529696637736   -3.24070108673541    0.87162285883990
H         4.17099351281430   -2.12918182722323    1.05755891121836
H         3.05722367513586   -1.95776312799713   -0.28415041686662
H         2.26564560040508   -1.20899787423495    2.46772987149160
H         0.29499443493059   -2.11143510140483    1.35086510670472
H         0.98417766965267   -1.47061818277045   -0.29486154007529
H        -1.48423785067433   -0.42375108115347    2.19556701278425
H        -0.83784941034176    1.22905594699080    1.77944657071171
H        -0.48458817701476   -1.43636983882878    4.11170938241333
H         1.82662958756531    2.88178698464041    3.01721808320026
H         1.00923575468066    2.06108277987981    1.66805193139282
H         3.31518579445052    2.33430931170086    1.15136068423483
H         3.88420697695583   -0.09931697838899    0.61446343225509
H         2.24950512191279    0.41309318802213   -0.03242648134966
H         3.26967726527719    1.68833376425123    4.32320795074708
H         4.94394768709430    1.43388470676802    4.47346190604679
H         7.28034912936439    0.06846778210602    2.04658325266797
H         6.70346266025831    0.36362634747181    3.62301189921830
H         8.49320471982717    1.93053396056788    2.65931092743673
H         7.09557573937199    2.98573671352670    3.04164521519756
H         6.57504174748535    2.94777234821827    0.63296927366814
H         7.69534531396121    1.83177293054135    0.47802284980250
