39
 energy: -54.531119012451 gnorm: 0.099149174849 xtb: 6.4.1 (79825abcba525fcdf90b791dcacef51065a7a4e7)
C         3.39985428403562   -1.99268537175856    0.78241875307186
C         2.37516779093671   -0.91624117357702    1.15501189809684
C         1.01943416604927   -1.16356592670412    0.47595243460126
O         0.16245654243165   -0.08229962029526    0.82960629815276
C        -0.46426116464447   -0.11801025188793    2.09585484032499
C         0.36749768429822   -0.05218544245346    3.36302845807193
N         0.33272764086899   -0.92863851319627    4.31418266835386
O         1.18007114979005    0.99465490727306    3.52927252287335
C         1.51853378681381    1.88800661360697    2.45137451918791
C         2.90742066671018    1.66958204628120    1.82636969881341
C         2.88315555918523    0.50235630593087    0.80838366096434
C         4.14112515982597    1.62968434961205    2.76823698017776
N         3.96702271088396    1.01982179672221    3.98905024649665
N         5.20393092093095    2.17027592279434    2.27593145206435
C         6.51933877411174    2.00713721522427    2.91276940576727
C         7.62320684697314    1.85528310727561    1.85337706442384
N         7.31467739996677    0.86875229553511    0.81575561177724
H         2.99776896508969   -2.93187154071765    1.17539545549026
H         4.37439956393787   -1.82698185575623    1.25442160004001
H         3.53161138326851   -2.06516432498227   -0.29522854742418
H         2.26231949067228   -0.94902238886464    2.25113605486016
H         0.57841180249436   -2.10794527325510    0.78689469431826
H         1.14762356748343   -1.25392185664297   -0.61014784520069
H        -1.12603944555637   -0.99114369000695    2.14444816344768
H        -1.13321898309315    0.74017380996595    2.02551962873496
H        -0.32260094477593   -1.71731940840022    4.20369936543530
H         1.63799557816750    2.79669065164349    3.05895866873703
H         0.69468133405757    1.95734716234278    1.73912608507765
H         3.12693985622714    2.58962509871364    1.25549500870772
H         3.93541219050170    0.49775323445528    0.49254188019426
H         2.34540313320009    0.79222253623166   -0.10627133309201
H         3.09941706250236    0.51946134682557    4.17898836048005
H         4.57236207984642    1.03011240588746    4.80078778451699
H         6.62707530393974    1.12051875903923    3.54911569106571
H         6.65087790241474    2.90192796376712    3.53332100625670
H         8.50752636331159    1.49598961713420    2.39142326568135
H         7.76282848714850    2.89674792418481    1.54619741401283
H         6.52167921228932    1.19252444515215    0.25655945637763
H         6.98489095324511    0.03206362578058    1.29074003792136
