39
 energy: -54.519329690886 gnorm: 0.093953990055 xtb: 6.4.1 (79825abcba525fcdf90b791dcacef51065a7a4e7)
C         3.63717272601587   -1.20678824277110    0.09935053708444
C         2.67804182958506   -0.45087184563729    1.02466049182185
C         1.25577684541619   -0.93879129170927    0.70937984587005
O         0.13388736145875   -0.13564539798021    1.06284721417143
C        -0.33647391202605   -0.49266417055104    2.34687741420053
C         0.76402923996315   -0.41793396222137    3.38860330267342
N         1.19326233549020   -1.43079430339996    4.06973920601203
O         1.41376320366757    0.73404091096678    3.57457931818809
C         1.32479590368741    1.87035728926942    2.69402935077978
C         2.63744593869375    2.00686754136419    1.90304138853292
C         2.70237931656136    1.05655023603009    0.68157463947819
C         3.91636558059448    1.79459657007953    2.75746412337617
N         3.94049636073163    1.01131345043569    3.88817820090145
N         4.97037526334840    2.34037247301627    2.25214010451394
C         6.25821040117866    2.09255892802686    2.91737973568222
C         6.89176546023815    0.80643036375986    2.36206195447028
N         7.04385072851756    0.74928362250474    0.90648781836692
H         3.82384754478851   -2.23939000475301    0.41089518250794
H         4.62564389083440   -0.73528835788378    0.12375266467883
H         3.31529305966001   -1.08550261898008   -0.93293823924054
H         3.06234722344251   -0.66585020954433    2.03529948851963
H         1.04739660383984   -1.87635200201787    1.21986564828623
H         1.19607688143019   -1.09329372716679   -0.37541296732596
H        -0.62931313380082   -1.54822520298949    2.39893401196404
H        -1.26715082486848   -0.01979419470267    2.66178365189987
H         0.62593794918880   -2.29055551070636    4.01842285308367
H         1.08547506262820    2.72020378832819    3.34948548976845
H         0.51427415897619    1.72940233586031    1.97707396569173
H         2.55498173490030    2.96611804187729    1.36118907192588
H         3.65358552932497    1.29247941152647    0.18502111088006
H         1.87512515038615    1.34997913590330    0.01874442129018
H         3.38076931170688    0.15933208751681    3.89134486141817
H         4.88454663470950    0.73905462397094    4.13333879861362
H         6.20680451740042    2.03206893420696    4.01115048101799
H         6.94511237546786    2.91484933104263    2.68277050339704
H         6.18243100146343    0.02048699674924    2.64445208427884
H         7.89325937119554    0.53812026074462    2.71351911987708
H         7.34666799712262    1.69030582003092    0.64351672263621
H         6.16394668607299    0.55330312746633    0.43555495977140
