39
 energy: -54.521319345980 gnorm: 0.117103107768 xtb: 6.4.1 (79825abcba525fcdf90b791dcacef51065a7a4e7)
C         3.48223899293822   -1.20100614111434   -0.06841784938324
C         2.50754971992861   -0.51388177500454    0.89354945424868
C         1.11635475749369   -0.98694615996280    0.44511708408535
O        -0.01169401972313   -0.29682844070814    0.97413692933154
C        -0.32601971561797   -0.77003736009658    2.26824215735200
C         0.65133320025106   -0.56117543266897    3.40975105331872
N         0.90920429436629   -1.54615566488195    4.20811793020995
O         1.18269438743197    0.60175964254158    3.79578820658772
C         1.31666534163918    1.72515146682834    2.90441797562628
C         2.59408917192864    1.90398420072305    2.06563655205192
C         2.71622452560178    1.01544232724486    0.80275232162403
C         3.93872545077650    1.83307379403839    2.83871971731847
N         3.80144609769893    2.14632826280768    4.17125680142639
N         5.08081893143123    1.65553999538606    2.26577617493578
C         6.40909404645928    1.74254736667100    2.89074782994256
C         7.40273733640561    0.85562619128856    2.12267207644822
N         7.35340221421732    1.00267965955476    0.66629538630861
H         3.32252648095237   -2.28015869767357   -0.15839352538849
H         4.52375586861208   -1.10270063161395    0.25648439343582
H         3.42868015636169   -0.75617137214891   -1.05997738557953
H         2.69883438671804   -0.82072854601871    1.93496807350714
H         0.94918207968279   -2.04880381845760    0.61109829598752
H         1.02551132112361   -0.76643671017548   -0.62601950038544
H        -0.55791832345699   -1.84159680149147    2.29387769922290
H        -1.21831916660623   -0.19704270480965    2.52203396947320
H         0.59427550876644   -2.51363154526809    4.03932830735334
H         1.44747225634425    2.55342035142647    3.61575228542542
H         0.49742363865065    1.93246750353042    2.21398195676832
H         2.51188772779570    2.98870530557578    1.87279245477270
H         3.75262188649142    1.20445931869123    0.49102436238154
H         2.02025200279396    1.45268328780647    0.07183751701554
H         2.99423145497891    1.62116907013140    4.50560541085344
H         4.67125858253360    1.94425570611595    4.64880515931189
H         6.41335731108033    1.43733440077991    3.94405828262910
H         6.60886718041247    2.82101406149336    2.88461613850273
H         7.29173293819991   -0.23002072003644    2.22093365783502
H         8.44370190472113    1.06432280347223    2.38976942466588
H         7.92878399780532    1.74835677824687    0.26720102663822
H         6.41772170525136    1.29011422575482    0.39006977115885
