39
 energy: -54.524326064683 gnorm: 0.115060428687 xtb: 6.4.1 (79825abcba525fcdf90b791dcacef51065a7a4e7)
C         3.54486630832829   -0.73332282993363   -0.34241298641647
C         2.54797066145523   -0.14718957295606    0.66266763765577
C         1.23445825953911   -0.88198869166266    0.35434899364366
O         0.19383548249757   -0.38021088730880    1.18738068226357
C         0.15333833845954   -0.87518834992188    2.51055601965003
C         1.27847195688340   -0.36530911011230    3.39145448513164
N         1.94325073086150   -1.16548620422150    4.16077823563094
O         1.41167036226875    0.92811720202263    3.69656750315006
C         1.34594524864208    2.08463180169534    2.84061627714859
C         2.48331695198921    2.22655407572975    1.81417057841729
C         2.31430392310867    1.37553422332337    0.53101036164021
C         3.93095354882936    1.89828835285266    2.26949740862800
N         4.15495539633939    2.12063897158733    3.60853155295706
N         4.73599375714521    1.50428641996446    1.34168663618688
C         6.14167027070382    1.14210159074786    1.57699563695079
C         6.43772401371663   -0.00992834860895    2.55120080926862
N         6.49692806439023    0.56230324419520    3.89810007250244
H         3.75322467720292   -1.80371333618515   -0.24741347948581
H         4.48088056924195   -0.20355048762829   -0.13456347534387
H         3.11348889583415   -0.48995272908920   -1.31123771933332
H         2.86033581091810   -0.38644055787569    1.69246591715636
H         1.34127047535169   -1.94955923578754    0.53301753767027
H         0.95895250503643   -0.81739807270355   -0.70590341265915
H         0.02793661599715   -1.96460078679733    2.52190203040592
H        -0.80479706674318   -0.45644473573241    2.81968674194251
H         1.94429217985895   -2.17827479927650    3.96600186236365
H         1.53390477051286    2.95172030123236    3.49020464227354
H         0.37823045094846    2.12319151411814    2.33774449669962
H         2.42555779114054    3.30412843573471    1.57739392562532
H         2.97639711185262    1.72182624040981   -0.27443093493057
H         1.27802343223391    1.52320624490810    0.19320924727468
H         3.31570350797520    1.96193950225441    4.16499124706472
H         4.99011792184179    1.65163679336569    3.93716511583606
H         6.85475761010372    1.95784333967979    1.74642964145344
H         6.49067649086624    0.74224014644747    0.61712960420871
H         7.28631873377104   -0.63345086272843    2.24835892843263
H         5.55897724613679   -0.66229042491731    2.52417596763093
H         7.31502902422317    1.17513299937581    3.93715620368532
H         6.48537813152970   -0.22538759748238    4.54139391859563
