39
 energy: -54.523653199497 gnorm: 0.109837719688 xtb: 6.4.1 (79825abcba525fcdf90b791dcacef51065a7a4e7)
C         3.66162508114820   -1.50332915004975    0.18819050002481
C         2.67227357801267   -0.63194421867843    0.96883899988060
C         1.28928836598084   -1.20138600006156    0.61756574783040
O         0.17021349412667   -0.43067083382927    1.04451781737082
C        -0.30529407730800   -0.66836703152584    2.35403251005696
C         0.39489551889046   -0.07647938832555    3.56287002334867
N         0.04870295647245   -0.38264343805162    4.77137633566398
O         1.32256271966627    0.87376970051198    3.42057588990080
C         1.39991732578306    1.83891753079943    2.35427187852648
C         2.77522794518655    1.89425221657851    1.66666307263155
C         2.93068681272745    0.83343681749471    0.54871694456180
C         3.95489559954184    1.78265516564874    2.66998901015401
N         3.65811810543152    1.98857856819122    3.99744813271499
N         5.09156302945179    1.44787618526863    2.16001815338209
C         6.32858319590197    1.46209875817393    2.95503606162845
C         7.53247706248388    1.50655678935960    1.99975622225303
N         7.30337441799742    0.42860181850024    1.03507140099667
H         3.52876583707333   -2.57277467816961    0.38004626146937
H         4.67048365871123   -1.25670160170649    0.53656109325339
H         3.63238443351751   -1.24595905427155   -0.86861717198836
H         2.75128799946287   -0.69319095248082    2.06670195600593
H         1.19147510014947   -2.26234259998622    0.83629345756866
H         1.18109446423525   -1.02067014388422   -0.45939590124212
H        -0.27665369933649   -1.75727288460379    2.48106619123973
H        -1.29822836150446   -0.21780239965513    2.35615086457399
H        -0.62633871531496   -1.15617384635030    4.86960620242395
H         1.22125861463462    2.85573834976501    2.73281219082298
H         0.65438594896115    1.49636720706214    1.63477131636537
H         2.93892307659989    2.88166105561586    1.19890940978285
H         3.97852318314185    0.91837624373721    0.22958457168148
H         2.32557857662374    1.23903199352636   -0.27537676397074
H         2.75574318555614    1.77162096337199    4.41914177702467
H         4.38075708043275    1.91496624768066    4.70302139773686
H         6.21825611073994    0.60913426752696    3.63541504324447
H         6.38664577828216    2.36262830827941    3.57850424965246
H         8.49717485677875    1.34104877032072    2.49227200329071
H         7.72719377577251    2.42587021535148    1.43810621619740
H         6.29053316445359    0.42228022898584    0.89193683358523
H         7.52321837985655   -0.47334176793977    1.45050326695622
