39
 energy: -54.520095797834 gnorm: 0.113293082522 xtb: 6.4.1 (79825abcba525fcdf90b791dcacef51065a7a4e7)
C         3.73779238905009   -1.51765915008186    0.85378152843845
C         2.60466429516898   -0.58099164126581    1.28530774372650
C         1.26561630954277   -1.12453201557930    0.76394482104097
O         0.17624628867039   -0.22363611160866    0.93795068585935
C        -0.46952525063191   -0.24707032379644    2.19487774766127
C         0.54401942064170   -0.36209912208906    3.31798957833273
N         0.76415769980617   -1.49157324629234    3.90951351840559
O         1.21359503325488    0.73174801027025    3.69075538814160
C         1.37242392057847    1.84452914795473    2.79020564359768
C         2.73706378998772    1.80199251702438    2.08077225226122
C         2.83226925482107    0.88161436941781    0.83854026866413
C         4.04510421508984    1.57693591908296    2.88644734870575
N         3.92989216222386    0.80396683708450    4.01864609548859
N         5.01388574400119    2.12390769244420    2.23342032062490
C         6.36493209567339    1.81633195646075    2.72590948063744
C         7.09330581992688    1.06122190249881    1.60199798303504
N         7.19838931805963    1.76408077575659    0.32135806311431
H         3.60404419258255   -2.46554642553780    1.38462527639257
H         4.64795337932484   -0.99635261054287    1.16973929653281
H         3.77907873251985   -1.71443847326487   -0.21556882123100
H         2.67117162927661   -0.57748267171657    2.38569948079447
H         1.10226400839285   -2.17353897474751    1.00045820639140
H         1.41651489527889   -1.18278149027907   -0.32143398326562
H        -1.14097866557483   -1.11316266503959    2.23620755774748
H        -1.01805595927558    0.69400050499234    2.24418521224016
H         0.17773714414878   -2.28443425856248    3.60758305265577
H         1.32438545713867    2.68834331564440    3.49363029218498
H         0.55233067556311    1.75392823202594    2.07600864715589
H         2.65782098887668    2.84769242230858    1.73321205914299
H         3.83970552572590    1.02937221341541    0.42591330160800
H         2.06010364725654    1.32002978838550    0.18942851884069
H         2.95630858925634    0.59167326763836    4.23368818030280
H         4.59131145853318    0.78722428372361    4.78526443672657
H         6.27719018252784    1.20364829129654    3.63120287377360
H         6.97140953295457    2.72184566164886    2.84947065873445
H         6.51532175978276    0.17424710831730    1.31947953243174
H         8.07710993336525    0.76595648765246    1.98074632324119
H         7.41410667257681    2.75870660708870    0.42412162229227
H         6.29211315611746    1.73974722379704   -0.13960682908451
