39
 energy: -54.528977680520 gnorm: 0.110223283155 xtb: 6.4.1 (79825abcba525fcdf90b791dcacef51065a7a4e7)
C         2.76023540515335   -0.47064863777920   -1.11785994566814
C         2.27710855937112   -0.02340515791376    0.26565076681919
C         0.93753359480588   -0.75466187152599    0.44202383868833
O         0.09290330224926   -0.39910633049727    1.53234417487875
C         0.45037203858343   -0.96787597633499    2.77578813219327
C         1.84624264852026   -0.58947793677828    3.23431270287341
N         2.82928424817735   -1.35795068811588    3.57658757134062
O         2.06798942728045    0.70445202929073    3.47999751236553
C         1.56893669041891    1.80757126294026    2.69988684122367
C         2.59521071565777    2.21538693421629    1.62853483301681
C         2.19794741814005    1.52029037236822    0.30251713019328
C         4.01442552771013    1.86834082823768    2.15400692965234
N         4.35152284831547    2.76104035243475    3.14500743827275
N         4.66128229426696    0.86604260929502    1.66295227555960
C         6.04686920679308    0.64208715876829    2.10166346052974
C         6.09608702268872   -0.13113635941674    3.42966930436094
N         6.35839006949301    0.91998447827199    4.41528273740004
H         2.63484622138633   -1.54599918079706   -1.27933040957096
H         3.82423029120193   -0.21020941864448   -1.12617520046083
H         2.33355839623050    0.09250078161600   -1.94535393109680
H         3.03343855957829   -0.41260880524563    0.96692314884896
H         1.09152180247405   -1.82326385938274    0.57399193470688
H         0.31068528829743   -0.46691071452815   -0.41148128865672
H         0.44775381943231   -2.06203306215379    2.70171244633656
H        -0.35763086897152   -0.57754602364750    3.39522763812315
H         2.52064218424705   -2.33885116160480    3.49750531720268
H         1.41351981226204    2.64970461572746    3.38966456208650
H         0.60926370967687    1.52268312381959    2.26548456757745
H         2.59341306490463    3.30741901507903    1.46111770879459
H         2.81213216992549    1.94382992225394   -0.50396446608187
H         1.16990172314908    1.86026331495877    0.10929624914200
H         3.60175322851901    3.22277765710988    3.65864233813109
H         5.20014455721418    2.57076463082514    3.66375192395670
H         6.72549981311460    1.48943969617893    2.25687369352691
H         6.51979904289050    0.11414647979239    1.26461308954716
H         6.95363208417872   -0.81309968654541    3.44187670004688
H         5.21311917721056   -0.72429569191857    3.68857525436326
H         7.03739680811379    0.69027853699959    5.14504975503075
H         5.47820546474945    1.03166931039032    4.91249375468087
