39
 energy: -54.517900607856 gnorm: 0.114396452633 xtb: 6.4.1 (79825abcba525fcdf90b791dcacef51065a7a4e7)
C         2.84052235209362   -1.72567303715658   -0.09950720386044
C         2.11641975189867   -0.58853332123831    0.62859228883147
C         0.59389709262294   -0.75121677758029    0.50303835531425
O        -0.16568110976128    0.10182432969515    1.35390869943269
C        -0.32068742447257   -0.21011903283375    2.72361672351611
C         0.95619216152801   -0.13874029550959    3.53993053718874
N         1.44735701806707   -1.05838519182160    4.30614434928887
O         1.61943796795471    1.02044049263433    3.52606212992217
C         1.55121699652151    1.86247796402628    2.35952145912439
C         2.79376208720964    1.78572030130333    1.45534389157254
C         2.70950549272925    0.79333977488762    0.26901254956701
C         4.12299313565996    1.42684728930824    2.17303993597857
N         4.29737474892539    0.25379187622904    2.87029247531045
N         5.00900327903186    2.34713516437566    1.99355081682439
C         6.37691638490994    2.52703773189626    2.50239600792979
C         7.39244075564082    1.37599217036400    2.41464136248052
N         7.06842106775458    0.39638512874315    3.45409940619658
H         2.81983392825583   -2.69422479482905    0.41005479792268
H         3.86681372533871   -1.39226410334109    0.08903284856255
H         2.55402602613524   -1.93949792734089   -1.12719178919505
H         2.33223830375855   -0.64687453594405    1.70809040138203
H         0.33373446175660   -1.78390949214920    0.72417027135802
H         0.19125858062561   -0.50833066941898   -0.48847518361951
H        -0.71635897022102   -1.19612262349037    2.99548938325815
H        -1.02811252856735    0.48421437388067    3.17790993686057
H         0.91060078577852   -1.93898546244895    4.29539367432187
H         1.49794702242142    2.88197659252240    2.76808130958780
H         0.59982530651582    1.70635418366048    1.84832870104409
H         2.93590234466617    2.79076550165046    1.01917179443872
H         3.73185457640426    0.62017810681078   -0.09408334294235
H         2.18276212386665    1.08713977226237   -0.65077919357119
H         3.51305679097101   -0.17182032984002    3.36311721543950
H         5.13336941439198    0.16090728244410    3.43415847845487
H         6.25146521470222    2.78612949644750    3.56058762799869
H         6.68225330313191    3.39306349904538    1.90255765233699
H         8.38446229723957    1.84090251243958    2.43356659653910
H         7.18652838467454    0.84800128032433    1.47798335853546
H         7.09652670508772    0.84994296990949    4.37054374613085
H         7.83249418699015   -0.27199819024216    3.39186402428710
