39
 energy: -54.527070082273 gnorm: 0.107465993432 xtb: 6.4.1 (79825abcba525fcdf90b791dcacef51065a7a4e7)
C         3.69073227126800   -1.08571361261258   -0.12368770028398
C         2.69746731652522   -0.38664612637924    0.81026602792994
C         1.28873376969993   -0.92532901513065    0.51769893939381
O         0.22505137502564   -0.19266495011739    1.11803355839699
C        -0.29304642502555   -0.65324582449180    2.34964860205763
C         0.64831815819152   -0.59255020971371    3.53793871529908
N         0.85791569117053   -1.39934048075737    4.52750002191445
O         1.23213533003756    0.59636810574516    3.70945596757492
C         1.29513896847053    1.69111540937061    2.77561593369662
C         2.60693289287089    1.89955306796870    1.99902237686986
C         2.67920314178419    1.15056239651760    0.64510571888375
C         3.88319182855123    1.67267310043506    2.85366922111206
N         3.70229864015266    1.45476424215587    4.19993161575041
N         4.98373218221982    1.77425171475489    2.18834764683294
C         6.33648435030560    1.86600810848929    2.75766036718438
C         7.21601197497138    0.78383685385975    2.11017827767677
N         7.33530211666254    0.90514643272399    0.65548051197226
H         3.76907494427259   -2.16225230953456    0.05824858655068
H         4.62984837292944   -0.62578736637314    0.20267352194562
H         3.43737006657990   -0.95880670534191   -1.17422997421026
H         2.99466366967227   -0.64272590479466    1.84050628899938
H         1.20112841963614   -1.95924477729453    0.84386096158970
H         1.08363475259375   -0.71912309664617   -0.54042395096033
H        -0.55293356073919   -1.71533786135507    2.26542878917140
H        -1.17979649075207   -0.06489567800579    2.58724048369480
H         0.38621675126066   -2.31245459744562    4.44146291621300
H         1.10170096353420    2.58024728646848    3.39299955407041
H         0.49816732145650    1.55223410130863    2.04323147501499
H         2.51622348275769    2.97227829942587    1.75083254773138
H         3.58932945266640    1.53958725254940    0.16829233861280
H         1.75921188192692    1.40078826313257    0.09665611227394
H         2.79086980398722    1.40466253876517    4.65376409894569
H         4.55515556537489    1.43349123581215    4.74549739885914
H         6.48397754736408    1.93373754285109    3.84223148797614
H         6.53250984380078    2.86180372346807    2.34172476758355
H         6.72455164811978   -0.19199274188155    2.19282136245189
H         8.19821736265363    0.69917624075848    2.58621153105083
H         7.92683718486719    1.73262043945355    0.54709277044377
H         6.38413356533794    1.04783569038994    0.32482147543646
