39
 energy: -54.523209209988 gnorm: 0.109104873593 xtb: 6.4.1 (79825abcba525fcdf90b791dcacef51065a7a4e7)
C         3.10257988340118   -2.28712515072624    0.90732980274583
C         2.38392916828553   -1.01339286546284    1.36415296486651
C         0.95709510309065   -1.08218831323795    0.79871799819745
O         0.30880353311156    0.18590132876305    0.78182923658570
C        -0.57479817327397    0.28623023988426    1.88029081232553
C         0.25343601214182    0.12766426961356    3.14154796746770
N         0.10895288793199   -0.80496939455152    4.02664250104873
O         1.21166300142317    0.99224580646781    3.48518619453708
C         1.73400843721249    1.91438167215352    2.50983035192081
C         3.02571780822679    1.43948130764930    1.82185968648385
C         3.02361698392832    0.27595856625856    0.79935748528254
C         4.20404160471485    1.11028597630645    2.77784926325752
N         4.01485805236055    0.93536434659902    4.12923412484307
N         5.37293733010071    1.15679440867789    2.23408476851106
C         6.69312672896651    1.27321964350144    2.87128155839931
C         7.38878600713455    2.33393400403247    2.00246642102303
N         7.17699205145158    2.13548765719627    0.56689889881688
H         2.70479094800052   -3.22238887827811    1.31380203445091
H         4.13314196492853   -2.34327529488189    1.27444259972040
H         3.18956121814707   -2.38766421748542   -0.17260676113904
H         2.36119542518816   -1.08733226425531    2.46384094825782
H         0.32550721918985   -1.77854205486158    1.34573388314810
H         1.00031414800574   -1.46828957853669   -0.22757068695757
H        -1.30223278635388   -0.53143228116342    1.95058081614260
H        -1.11298364168328    1.23031913770941    1.96964424660683
H        -0.60352821220256   -1.53573581546513    3.87821479188726
H         1.85280397222080    2.85652520605381    3.06425750512342
H         1.01677866394272    2.18359818371238    1.73269282436525
H         3.34067472623030    2.33401162457349    1.25512919132496
H         4.10144779444528    0.16105747530062    0.62019351604393
H         2.46885407652480    0.65437156482624   -0.07175421518131
H         3.17401065862158    0.87463873116370    4.70235250209098
H         4.81645703728790    0.63263890588780    4.66891539196135
H         7.14430076231194    0.27503018560573    2.92320303432440
H         6.68555331990300    1.61147773467952    3.91462302524497
H         8.46858154416887    2.39537078913209    2.17817542074874
H         6.99545218495020    3.33920923206095    2.18471000555626
H         6.22962544717495    1.76864633485384    0.44732117291933
H         7.87880357545023    1.46554115962554    0.26185871959768
