39
 energy: -54.524889530399 gnorm: 0.108298796580 xtb: 6.4.1 (79825abcba525fcdf90b791dcacef51065a7a4e7)
C         3.30202694905866   -1.01357176797392   -0.37100884456795
C         2.27344832687185   -0.32456635226408    0.53167477220978
C         0.82255161986747   -0.78280921821584    0.31903150770356
O        -0.04510711641638   -0.16655672268457    1.26561467496129
C        -0.06032514877703   -0.74675181608399    2.55424873211782
C         1.04681987215146   -0.35493127364841    3.51476481756502
N         1.74092820356109   -1.15541906320766    4.25739941620580
O         1.53887661110491    0.88659222535615    3.53170449727145
C         1.41755054531308    2.03935095134820    2.67676261791243
C         2.59096663205281    2.11397140246937    1.68435465704732
C         2.27587514181066    1.21990231296296    0.45934114553985
C         3.97292480646491    1.76245129376837    2.29864921012662
N         4.05506537663421    1.85620801413397    3.66871915027597
N         4.96240535753584    1.70228703088200    1.47313812169419
C         6.39384338634868    1.49969539204225    1.74224109378569
C         6.81739015079011    0.23963751811839    2.51474274077903
N         7.16872407353222    0.51969917457931    3.90873760341447
H         3.16770841872374   -2.09067533039467   -0.22965681066142
H         4.34447206637438   -0.85270274884189   -0.07535334154042
H         3.02042789345348   -0.84507527561364   -1.40843244973683
H         2.55707458612937   -0.68100120533237    1.53557110445781
H         0.63152720349643   -1.84501941802059    0.45415115661512
H         0.47746414145917   -0.47012221498714   -0.67462436814092
H        -0.19623339228570   -1.83174888835308    2.47067792432776
H        -0.93552146564685   -0.33002254223573    3.05354783102618
H         1.35525922828523   -2.11167199975266    4.23460854007654
H         1.57566053745844    2.79727906642621    3.45758429510451
H         0.44509917000357    2.10596217460983    2.18610992166845
H         2.71046586168105    3.18252918171680    1.43044522273559
H         3.00348204192136    1.50528168323749   -0.31277804356841
H         1.32096697126736    1.54987307024579    0.02452677165202
H         3.34607240038733    1.38773842978098    4.23178383484350
H         4.99671728575613    1.71972293547808    4.01530680795318
H         6.78193516749669    2.37332190159655    2.27963994475435
H         6.81721525655417    1.43760259509129    0.73232126786097
H         7.68778484584636   -0.06166583385259    1.92124809445279
H         6.07839705638215   -0.56656312508229    2.56406032490801
H         7.97491583144760    1.14932563770309    3.90825153485156
H         7.44505755147072   -0.33692605552257    4.38228829533763
