39
 energy: -54.521427043616 gnorm: 0.112510878954 xtb: 6.4.1 (79825abcba525fcdf90b791dcacef51065a7a4e7)
C         2.97770541422744   -0.35499874713530   -0.95380433464705
C         2.22330702102572    0.12054400367997    0.29210189482202
C         0.88191893070201   -0.62631381301856    0.23565428839809
O         0.02928446815965   -0.53385945449437    1.37279331933345
C         0.59995148115754   -1.13346214254753    2.51832875721867
C         1.82653477321367   -0.62275702965387    3.25083015776941
N         2.62027652620802   -1.40594527438867    3.90707967850699
O         2.05614993064745    0.67121057451815    3.48897321902528
C         1.43100929271255    1.72653108151069    2.73399232696423
C         2.43963003522757    2.27665200041769    1.71056754157094
C         2.11027946903529    1.66216733849049    0.32736939150864
C         3.87026946031596    1.93728750550707    2.20940134575390
N         4.55868311606747    2.76594828502391    3.06499295129202
N         4.48688011074529    0.94056925255628    1.67041702803824
C         5.71811537870609    0.27291912647762    2.11849919389976
C         6.11689930328649    0.06587185972162    3.58887305603246
N         6.69985013553274    1.16357068203597    4.36367454243832
H         2.90805269899616   -1.43774536379141   -1.09865672139463
H         4.05037167006100   -0.15595403208242   -0.85505641525404
H         2.66541918692188    0.05915161567090   -1.91030505272645
H         2.74907521108456   -0.21622207736372    1.20064684669546
H         1.03739355525590   -1.69562693891773    0.11141565134049
H         0.28303060678858   -0.12693043336422   -0.53645940022057
H         0.94491530574215   -2.12207961272469    2.19227777603581
H        -0.27205283347520   -1.16843803399206    3.17202335469747
H         2.36407250871667   -2.40281064116090    3.84151594047536
H         1.18083628158284    2.45499296155749    3.51878086103494
H         0.55616473646202    1.32887245316802    2.21693001149317
H         2.32864217532911    3.37361223925257    1.64038407106093
H         2.88421828583629    1.96851701021076   -0.38970091291908
H         1.15171325202132    1.94567129716280   -0.13150986499134
H         4.02066215107962    3.12675310034044    3.85209520737162
H         5.46437623972325    2.41536027287742    3.35181608909339
H         6.55215428412163    0.60144807958577    1.48676835139740
H         5.44487079479810   -0.73726808734969    1.79002315713531
H         6.79743614709796   -0.79270217747763    3.60694926890896
H         5.16549244305808   -0.06315219176678    4.11487712145662
H         7.68902699205506    1.24477615565919    4.11606661659270
H         6.71190609894673    1.00486475322992    5.36820642973042
