39
 energy: -54.524918487418 gnorm: 0.108923278181 xtb: 6.4.1 (79825abcba525fcdf90b791dcacef51065a7a4e7)
C         3.49823348931545   -1.62481908585106    0.56505787080578
C         2.40711627740669   -0.64428117711854    1.00726687263819
C         1.04650102708685   -1.23252152190775    0.60352888758874
O        -0.07306150763502   -0.45056699175326    1.00818348790030
C        -0.46772135077962   -0.57856814064633    2.35921826605635
C         0.47709728084380   -0.16570855570449    3.47220940946805
N         0.79154945476183   -0.96653741907142    4.43857692899119
O         1.05600744344361    1.02630959287384    3.63877210264993
C         1.42785217428874    1.98353808744701    2.62884962978101
C         2.75855746001917    1.79370844140541    1.88016062524194
C         2.73176929889460    0.82898787581893    0.66859265781137
C         4.03052806560186    1.43414010066207    2.69473660024777
N         3.84619461500651    1.20993956787351    4.03949842710881
N         5.06736067749778    1.52782433610826    1.93292198022003
C         6.34454980446208    1.35124973619482    2.64008816628220
C         7.59329967512783    1.17966566946160    1.75970233823450
N         7.69784505659437    2.29305339466733    0.81390649178006
H         3.30796495136576   -2.59982089187597    1.02477877599493
H         4.55641188839247   -1.39938424963112    0.73658177365199
H         3.36900710787573   -1.79122711738182   -0.50243720854315
H         2.37635895612883   -0.68353246345427    2.10854378446102
H         0.97043138469874   -2.20919926147070    1.07613036592792
H         0.94160391535415   -1.31434996358865   -0.48574207348007
H        -0.69197310523549   -1.62991630084222    2.57613294384920
H        -1.31077837233169    0.09723378557612    2.50577228285111
H         0.20266653523698   -1.80936412899158    4.51944535485911
H         1.60794526704164    2.82047068435504    3.31895585355043
H         0.55965976790591    2.11421527115637    1.98077230297005
H         2.96247741286883    2.80433953220897    1.48316282136612
H         3.69433801114512    0.85225391462489    0.13949777426463
H         2.02981876709931    1.26359834078918   -0.05816249861550
H         2.90212553532320    1.00197378189366    4.36301109266020
H         4.60672012960034    0.82406013679796    4.58553643619745
H         6.41992106503035    0.46300782883871    3.27882249135437
H         6.42840334156887    2.23245088017010    3.28776899235709
H         7.49699256121239    0.21798517895818    1.24346391450439
H         8.48862806606540    1.21374996371948    2.38877136457489
H         7.52765619355647    3.11615007112954    1.39693520806434
H         7.05146961455172    2.16524035528260    0.03912920055716
