39
 energy: -54.524904130489 gnorm: 0.108269916852 xtb: 6.4.1 (79825abcba525fcdf90b791dcacef51065a7a4e7)
C         3.09381425068492   -0.58371177782086   -0.83136131887902
C         2.36792184840784   -0.04305812346979    0.40488866756920
C         0.99208267264541   -0.72658609271800    0.39219957815680
O        -0.01284694767346   -0.44589454042406    1.36170832666413
C         0.25807079768252   -0.96837643355836    2.64664097519739
C         1.50194128564825   -0.48041296098711    3.36536376318898
N         2.25637948205268   -1.25929921041324    4.07121958790876
O         1.70677325991850    0.82712484420824    3.54474086527716
C         1.32563218389391    1.75922180730107    2.51497144671468
C         2.49130315844705    2.22141807199173    1.62338134852861
C         2.29847005583561    1.49552786750451    0.26868613133822
C         3.88030125132668    1.83357467572580    2.19870246928704
N         4.21325526149478    2.31775150358598    3.44262508696482
N         4.79623751241972    1.28049514449742    1.47806117783432
C         6.17893956903550    1.16347580404423    1.96480148599063
C         6.43782057293476    0.10485707151767    3.04933065153139
N         6.76559563658823    0.55939079829397    4.40249521259140
H         2.93511346583659   -1.66305695074374   -0.92081528034995
H         4.13440374860799   -0.29454091628754   -0.64823142161477
H         2.66237073202131   -0.13288828269896   -1.72273750493038
H         2.89492753413418   -0.30761999004334    1.33632279576959
H         1.13177517822562   -1.79937596689690    0.50465422764266
H         0.56891402597533   -0.48131261980446   -0.59013424895155
H         0.40192764049757   -2.05548439428925    2.63340198882611
H        -0.65790044916991   -0.78093401630210    3.20770556816644
H         1.97282717743333   -2.25044717608307    4.10127718755804
H         1.05030997184477    2.63459192504453    3.12082714869890
H         0.51633649927243    1.35710032797929    1.90327084752373
H         2.45991703623400    3.32526494813199    1.59017338644054
H         3.19992929628415    1.76847363935766   -0.29690478349192
H         1.33048833357542    1.83607093788297   -0.12733870202930
H         3.45194177254151    2.56292482220056    4.07466025172999
H         5.00315965523077    1.79527672427146    3.80113681727016
H         6.62130619482838    2.11317537674183    2.28886710220343
H         6.64119391711046    0.93106291517786    0.99767042800459
H         7.08277698161385   -0.69745819799652    2.67392691662461
H         5.53158012195245   -0.50184250847110    3.14496726834632
H         7.61182459013148    1.13174173120760    4.35067015661778
H         6.97524156333093   -0.23552573611851    5.00130530072212
