39
 energy: -54.530350303928 gnorm: 0.100171332085 xtb: 6.4.1 (79825abcba525fcdf90b791dcacef51065a7a4e7)
C         3.46138403727146   -1.97845579190993    0.62352038449072
C         2.53748046361773   -0.89648365782534    1.19209638116076
C         1.08187743756145   -1.24683025340291    0.84744868142559
O         0.16750396484645   -0.16338421786047    0.98413940716342
C        -0.62217374554022   -0.18027280428761    2.15612898120002
C         0.12446725728796    0.22620168088743    3.41278736520716
N        -0.13956633404829   -0.36409843573276    4.53345915592873
O         1.15684432543778    1.07347929027023    3.42306468047803
C         1.53915071324429    1.87882986684119    2.29180407101976
C         2.91816459936771    1.57695347912873    1.67980865329960
C         2.90073852889288    0.47924595401853    0.58708965457418
C         4.11881381113544    1.38339733006726    2.64505994685232
N         4.03261294533934    0.50208612783536    3.69790799679436
N         5.20723083783034    1.98090245885934    2.29506555297716
C         6.47633350895293    1.73478367592580    2.99597824412100
C         7.64599402909628    2.10798268327405    2.07049820794712
N         7.68369759167501    1.27779676328724    0.86448762641994
H         3.18978857060379   -3.00819251958829    0.87660559498821
H         4.44259388386630   -1.77231095804246    1.06478492296442
H         3.49865981293126   -2.00604833240181   -0.46357942884380
H         2.58404363187218   -0.95019571108488    2.29220746443662
H         0.76973187911332   -2.05523577269459    1.50477951781002
H         0.90882824921436   -1.58405007847931   -0.18238008894641
H        -1.10140388422001   -1.15637517687369    2.29838371765249
H        -1.37550125622132    0.57447392808627    1.92856250794840
H        -0.98428892261582   -0.95180544083804    4.46472862449614
H         1.48644777383735    2.83626635053931    2.83001783488070
H         0.73765160562104    1.89611278878591    1.55143978756454
H         3.30141046480626    2.48899520112213    1.18800757546909
H         3.87020144539693    0.46299777897034    0.07046709124309
H         2.18581145713822    0.75854051064135   -0.20073500352294
H         3.19462798756735    0.58749360839622    4.27207122149446
H         4.83235806672401    0.62958261785890    4.30586514350019
H         6.60063805935565    0.65292992855866    3.12550390021705
H         6.41589084652650    2.19006226069139    3.99202312657386
H         8.58513055145897    1.81363890576162    2.55215251085715
H         7.67182220635612    3.16149202032758    1.77392867982154
H         6.88416831976642    1.59082245860202    0.30848157534977
H         7.59688860363551    0.30915305452129    1.16216329040775
