39
 energy: -54.520231738658 gnorm: 0.114638425096 xtb: 6.4.1 (79825abcba525fcdf90b791dcacef51065a7a4e7)
C         3.11558369735601   -2.09773970297852    0.51115242286307
C         2.29528772364779   -1.02544526016129    1.23561038183911
C         0.88683571984794   -1.04008937478221    0.62213384999628
O         0.09124168207445    0.12169755843823    0.83637616279145
C        -0.64197235633690    0.18248355699387    2.04308156370680
C         0.11072324962100   -0.01421982514491    3.34563357357072
N        -0.23539690719637   -0.87972676228087    4.24294724878966
O         1.29414433410221    0.57821253905039    3.52542750240544
C         1.64055360881184    1.63537779460285    2.61060480115237
C         2.99745510654129    1.45341204521198    1.90842683591521
C         3.10597994882483    0.25570357313900    0.93220088516241
C         4.27572306103618    1.31170559788899    2.77830207784504
N         4.14827231523506    0.61797311068580    3.95945430505184
N         5.25384526113336    1.97987246758833    2.26743019674344
C         6.57456263470426    2.12234263904571    2.89820948426924
C         7.58600463771896    2.48707890829416    1.79918762254916
N         7.79132691517288    1.38788092554142    0.85330269427634
H         2.63119369672451   -3.07840305394407    0.55404383927000
H         4.09574555474338   -2.26440507075651    0.97103092605092
H         3.26444040163318   -1.76620780198401   -0.51445233586196
H         2.17998867017831   -1.27024274994797    2.30429079713161
H         0.38348064944596   -1.92274304777455    1.01019870263154
H         1.03033180076816   -0.94561765799967   -0.46169939642195
H        -1.30402563834778   -0.69070203030176    2.08674137985029
H        -1.17222825541426    1.13493661911294    2.01872337241246
H        -1.14562507156769   -1.34489033804444    4.10588083825409
H         1.76579982199883    2.52423786936769    3.24572482608520
H         0.92947763257774    1.65357176412677    1.78303078077420
H         3.16442084256980    2.38133206490991    1.33253388753811
H         4.15187698475540   -0.06544414118210    0.83227705966952
H         2.77062818551433    0.57018359089739   -0.06701650103429
H         3.31585312574247    0.35227327503473    4.48448621853652
H         5.03738986099916    0.40912107531497    4.39684464800842
H         6.81697806829713    1.22771942398157    3.48431536536098
H         6.40616569960543    2.86628546292427    3.68639021455530
H         8.46928088629663    2.81765694845693    2.35699382627731
H         7.24440975366823    3.38932005078855    1.28171650364202
H         6.89156904230420    1.21310930624274    0.39913805240270
H         8.22177308993378    0.57958613744142    1.29578756505977
