39
 energy: -54.524691213807 gnorm: 0.115507045041 xtb: 6.4.1 (79825abcba525fcdf90b791dcacef51065a7a4e7)
C         3.60737199956335   -1.68702806357476    0.31844497834688
C         2.60332294675930   -0.77371334137451    1.02927680210712
C         1.19046291151214   -1.35512816640718    0.86775821168449
O         0.19889064420008   -0.34275978055394    1.01098254677333
C        -0.29813740734138   -0.39257885886798    2.33307061769775
C         0.70647456708763    0.05587687502663    3.37783224930780
N         1.12638847751639   -0.68357316895605    4.35300361325373
O         1.06168997670360    1.34256311158916    3.42308665458651
C         1.29214742967560    2.07959490934461    2.20728575834069
C         2.69633313957247    1.83375249109887    1.62834615217842
C         2.73275689335952    0.69856250571643    0.57510482659423
C         3.88655198562786    1.67463167565183    2.61261858803575
N         3.65870150644649    2.10433289067126    3.89950243995340
N         5.02166504732577    1.24730483284849    2.17322108482285
C         6.11558133100651    0.86309157606386    3.07776626081651
C         7.39926525968373    1.37826285454210    2.40646107292726
N         7.47862443829011    1.10318357296004    0.97010274251701
H         3.42968766960417   -2.74553859842600    0.53328835115755
H         4.64923860517447   -1.50383750896339    0.60294109218568
H         3.41705139818685   -1.51203629796226   -0.73848112440764
H         2.79246175908447   -0.92924059805917    2.10414204370218
H         0.95999907951570   -2.23897229366378    1.45830383696199
H         0.98564077306298   -1.62656464721075   -0.17559247734560
H        -0.64105889579489   -1.42274051461026    2.48749084711518
H        -1.15058739306270    0.28724630449829    2.32315866434626
H         0.82523737217533   -1.66969618917972    4.32957148473711
H         1.28243467998864    3.13149731674736    2.52750954355556
H         0.52451802156461    1.85714905988826    1.46425026633090
H         2.98250003122532    2.81129828773150    1.20046938784904
H         3.64023033482755    0.90181079542945   -0.00987663317461
H         1.86656120690275    0.81528204937357   -0.09263422687244
H         2.78237577587889    2.39462320089940    4.33189273410342
H         4.38154559626210    2.13787216062999    4.60790276667991
H         6.17260998027549   -0.23176306468976    3.10378725865603
H         5.97413237329529    1.13678302772891    4.13044023293509
H         8.31857211415757    0.94559565781225    2.81668118162409
H         7.47682900801857    2.46702463933017    2.49062843907880
H         6.85234004918600    1.72250701722762    0.44992853468989
H         7.02345526265345    0.20162480574837    0.84997761201656
