39
 energy: -54.519305277720 gnorm: 0.113200444153 xtb: 6.4.1 (79825abcba525fcdf90b791dcacef51065a7a4e7)
C         3.70833670821611   -1.45676122978457    0.24351367914141
C         2.70539165466311   -0.59399814866401    1.01635341749106
C         1.30803203736549   -1.12546795948347    0.66247365431562
O         0.17038441718422   -0.37932721425157    1.08395959418416
C        -0.39271250998865   -0.77101578611245    2.31965276158854
C         0.29696654116294   -0.12807440133237    3.50828803613327
N        -0.05019188038466   -0.45501014347210    4.71106287008287
O         1.39761219826215    0.60980425209099    3.34125016180519
C         1.37747723704176    1.71364146864801    2.41624404498274
C         2.74121440158430    1.93814232540341    1.74010248454890
C         2.89224348832870    0.88678947008018    0.61265061894498
C         3.99023578201766    1.94442583160628    2.66240325451335
N         3.79974197770936    2.40424051322298    3.94494433576292
N         5.11402238007138    1.56037164803137    2.15865118565726
C         6.31966571293566    1.41369204861142    2.98773736335343
C         7.48385955808926    1.36376954590366    1.98471345421861
N         7.41995491538732    0.27310070383787    1.00929076886124
H         3.76189357428338   -2.53036605061778    0.45010094617637
H         4.73431267954205   -1.15449993784388    0.48014475224737
H         3.64594343508061   -1.35330111730755   -0.83784653819643
H         2.85401272517302   -0.68303391370665    2.10505995323946
H         1.25861308774983   -2.16379998571794    0.98257134550278
H         1.22780982783479   -0.96416324180514   -0.42000300684400
H        -0.21845830396781   -1.85373035335718    2.32585217969056
H        -1.43435620935613   -0.44937757503457    2.29823451066559
H        -0.84775231722153   -1.09311142882272    4.85390460841326
H         1.04962146650590    2.63112375786648    2.92602156894828
H         0.58991884335017    1.46993673160238    1.70126251024616
H         2.80433188255504    2.96163480477406    1.32895150247086
H         3.89988271669048    1.08057445471255    0.22005438715329
H         2.16896209028085    1.23345198421956   -0.14000002502923
H         2.86316948845075    2.59547796891954    4.29911497507093
H         4.28845129466558    1.86961998502400    4.65261911730588
H         6.13321894097090    0.50117923742318    3.56669678813023
H         6.51110274439306    2.10719058149068    3.81565581113246
H         8.47257986714550    1.34299806149422    2.45652615886647
H         7.55372070932424    2.25366834790311    1.35091376620414
H         6.65811338122145    0.38879955426140    0.33654555467728
H         7.35214896882582   -0.65489646619656    1.41994980111261
