39
 energy: -54.522793682151 gnorm: 0.108073147057 xtb: 6.4.1 (79825abcba525fcdf90b791dcacef51065a7a4e7)
C         3.66713170534815   -1.18244928386691    0.35205976011980
C         2.48222319210441   -0.42046074363400    0.95447610674538
C         1.10505003350475   -0.90334192911675    0.47434612415291
O        -0.03819719953660   -0.21637718152037    0.97402974333714
C        -0.34510178829348   -0.54703193381971    2.31340000399741
C         0.82784684441297   -0.60971264317626    3.27368499242683
N         1.14382455832794   -1.62022311230424    4.01739186899683
O         1.31093181628053    0.57361285962710    3.66118605655413
C         1.42168256947522    1.70071735641750    2.77131638815228
C         2.70512310551626    1.96869008708572    1.96613437841010
C         2.58431086612484    1.09944924232421    0.68976254408402
C         4.08395790723256    1.80955149018972    2.66199504018710
N         4.05061495725031    1.15599798533145    3.87211284099007
N         5.06981069598956    2.48279264932634    2.17311808132244
C         6.40689487009525    2.29938968805480    2.75710772534561
C         7.00251470954894    0.91041656190189    2.47446451148025
N         6.76940864891922    0.63516740349173    1.05496065134897
H         3.43076572680518   -2.23494082682157    0.53798079098602
H         4.58663031915930   -0.80498145441319    0.81251951247582
H         3.65861538163672   -1.17441283171257   -0.73596584768771
H         2.51676948788963   -0.61163665772359    2.03962855538409
H         0.86599908645957   -1.93781844287838    0.71046293694314
H         1.18422707592540   -0.73320078019741   -0.60685391295906
H        -0.80934191766499   -1.53838362986429    2.24724329441240
H        -1.03821870272315    0.19952562076851    2.70220874640179
H         0.76349625760063   -2.57353402541615    3.91625658484346
H         1.16348339323198    2.53953580979264    3.43377624557436
H         0.63535494585783    1.67304443148215    2.01516700781337
H         2.71356598342425    3.03027295492830    1.66029729123309
H         3.50692226978195    1.24737532776312    0.11189811014571
H         1.71785974386266    1.39790441640186    0.08150205545258
H         3.25881896963127    0.52908605835286    4.01073888286224
H         4.91999559528707    0.83990730219491    4.28408793270289
H         6.47531536543532    2.57134145340834    3.81729493128240
H         7.10611461672196    2.95909787544501    2.22898447262404
H         6.48079526717384    0.14606489027726    3.06113467278791
H         8.06590398644144    0.84720748191575    2.72687362421817
H         7.63198820729032    0.31468970351762    0.60816604493647
H         6.51500915219841    1.47274691162105    0.53712023276681
