39
 energy: -54.527208055950 gnorm: 0.104892676449 xtb: 6.4.1 (79825abcba525fcdf90b791dcacef51065a7a4e7)
C         2.94581167794068   -2.54099682681698    1.11070715814846
C         2.29852992451121   -1.17766630767696    1.37508647014163
C         0.81395370050524   -1.39871981071140    1.04725458636903
O         0.03489379910896   -0.20650576760498    1.06485764048599
C        -0.43605032211077    0.12909684921054    2.35443826988911
C         0.63597670760414    0.62783313472085    3.30517733821173
N         0.83389292500132    0.23394376208382    4.52162855824712
O         1.38946142716031    1.67824678496270    2.96949989155963
C         1.75920833595612    1.95453478815141    1.60515005272564
C         3.03067506912879    1.25759104979026    1.09037936071657
C         2.91178920981385   -0.13165240319570    0.41571713844850
C         4.11726803777256    1.10131775243855    2.18838983787936
N         3.93691384788794    0.59418641976947    3.45445430775190
N         5.28281819594193    1.22581126093546    1.64973010643534
C         6.54117638467745    0.80324512609734    2.28253906880273
C         7.37091632309922    1.91787274351315    2.94059182948548
N         7.25975772564608    3.20078318254279    2.24282660156489
H         2.35488324345916   -3.34802443361003    1.55532382671815
H         3.95894180206443   -2.39469983835201    1.50076791630192
H         3.06797280471582   -2.70317791222817    0.04173064048152
H         2.54961239618415   -0.76610958378916    2.36648758773400
H         0.35878029673384   -2.04017946790019    1.79851009927962
H         0.65153910065657   -1.82937954971042    0.05107979157252
H        -0.98141593013964   -0.66684057748725    2.87571914780684
H        -1.11474650123259    0.96695598161749    2.19228080325421
H         0.08396101996321   -0.41272977244255    4.80989083696309
H         1.83873821165942    3.05039681348422    1.64871270456927
H         0.90459698467052    1.71025059660801    0.97205963061797
H         3.47545852943339    1.94722241530990    0.35068884400902
H         3.93428915723772   -0.44634800371587    0.16575359110159
H         2.26648203168702   -0.02374882912116   -0.46843745043346
H         3.09268416118792    0.76665117255171    3.99916411977804
H         4.76424611141813    0.84494867302509    3.98180535688469
H         7.06876792257357    0.33422327264317    1.44331221117221
H         6.33452015810688    0.07199279458658    3.07348821344808
H         8.43572992011747    1.67593438206102    3.03139031377207
H         7.01292207075617    2.02167939046545    3.96994444109404
H         6.32842992231820    3.62183834272994    2.28425057179638
H         7.23472382033494    2.97025891044037    1.25254931744764
