39
 energy: -54.518735890035 gnorm: 0.115319228935 xtb: 6.4.1 (79825abcba525fcdf90b791dcacef51065a7a4e7)
C         3.34927567847717   -1.97859189275540    0.94393137990237
C         2.38986317902384   -0.82420611866633    1.25127697604965
C         1.07004326447926   -1.12677043488862    0.52544284888183
O         0.13193017375605   -0.10470872427656    0.84785905445581
C        -0.54206635434100   -0.19838339735022    2.08656378847664
C         0.33447582654906    0.03964777273961    3.30184136240140
N         0.22748462702658   -0.63560358944439    4.40032291648842
O         1.06060234452382    1.14416801710731    3.49305516016237
C         1.49264923222047    2.03650258842976    2.44827154063991
C         2.86165119697087    1.68777232619783    1.83870785406214
C         2.89653451768722    0.55824870830890    0.77934018930795
C         4.01250110162860    1.38431267167778    2.83579827253571
N         3.80664577194114    0.98278077496883    4.13542311479452
N         5.15328052512007    1.65906527468007    2.29980072088412
C         6.52245096008993    1.48411716919010    2.80698915026995
C         7.42188426719742    2.12718817144285    1.73863717777817
N         8.00189594682003    1.23005563287002    0.73672330916125
H         2.86508608348077   -2.95811230881966    1.00930829658036
H         4.24366533034907   -2.01914134869640    1.57512527770805
H         3.65383856658649   -1.94062659569995   -0.09997327141009
H         2.19538964108540   -0.92701476675938    2.33151210641364
H         0.63330930345471   -2.10462941158453    0.71542555751390
H         1.29663717656374   -1.04910070098486   -0.54546010981943
H        -1.11902508598635   -1.10606327517108    2.30082916262500
H        -1.28472198710996    0.59640854059525    2.01106636819701
H        -0.41523408766802   -1.43846459763285    4.32282118082249
H         1.43898635295232    3.05358519704882    2.86275861608597
H         0.79642460348598    2.01173877037778    1.60833295524414
H         3.12062271663865    2.68299599949654    1.43493887887146
H         3.93042640160143    0.44770203348894    0.42456105512680
H         2.32327305487573    0.83552368162153   -0.11747849107934
H         2.98610659051623    0.44633284830277    4.41491496975294
H         4.54982635934673    0.57762035516681    4.69128922637776
H         6.50516371615670    0.38764263227166    2.81597740713589
H         6.76253507527989    1.89335832539927    3.79588681799089
H         8.24057043395117    2.68675538851299    2.20473161267839
H         6.87033575596925    2.80047165570170    1.07456934011414
H         7.21090763503745    0.74424457356621    0.30695595789822
H         8.71918288135634    0.57757580355537    1.04362192483016
