39
 energy: -54.526587347890 gnorm: 0.097548607647 xtb: 6.4.1 (79825abcba525fcdf90b791dcacef51065a7a4e7)
C         3.10042388876132   -2.50210223137274    0.82866187638900
C         2.43048210632769   -1.22154581028566    1.33747759673053
C         0.91509594401577   -1.45149678036110    1.23244301728293
O        -0.01711330873077   -0.37547890425653    1.19013537786678
C        -0.53411544393811    0.09675323296405    2.41779219283482
C         0.43101472680696    0.66952104708540    3.43874535440125
N         0.11373976595419    0.44927781681171    4.67361487447652
O         1.47687228871584    1.44185394294606    3.13301470775093
C         1.70793402623152    1.83086566599732    1.76561621240125
C         2.99813131975116    1.30157525075692    1.11554725966271
C         2.90506231366060   -0.07611600086116    0.41368881831115
C         4.23452243012153    1.20030687515615    2.04925722923705
N         4.14611357065222    1.05892317793485    3.41484264995203
N         5.33545666133565    1.18459279475820    1.37705416966454
C         6.60152164038096    0.77779297657010    2.00480253690655
C         7.17326811575524    1.79455108256448    3.00640397439254
N         7.45171702414625    3.10165683028544    2.40721076027270
H         2.67074334761276   -3.39731823526323    1.28924508206447
H         4.16721325831893   -2.56549347852120    1.06933766746683
H         2.99208194275228   -2.63521068532877   -0.24580589815292
H         2.75749411344546   -0.92278084252947    2.34698250014791
H         0.62695031843099   -2.19136530225347    1.97581696357514
H         0.79983594236657   -2.01940706725892    0.30056128298944
H        -1.16783653314958   -0.63451656942000    2.93385016626551
H        -1.19241789268174    0.89245549855396    2.06789613015529
H        -0.69926988654994   -0.18340934276019    4.72262428603655
H         1.83207617048271    2.90685088257248    1.95530232226003
H         0.87196216471677    1.64212253280212    1.09006764317149
H         3.36379789733323    2.00836377166931    0.34918981454688
H         3.94637262308091   -0.26863418370192    0.12106137239255
H         2.23310619443653   -0.01578863311400   -0.45500528213185
H         3.33763716184074    1.46636293194768    3.88338866413818
H         4.96090936308088    1.26962437276866    3.97802318284142
H         7.36668489187346    0.63226281019558    1.23280369475467
H         6.51508467887528   -0.20009829994839    2.49398002445450
H         8.12833335348796    1.32489544596027    3.26694285450921
H         6.59013355058094    1.83982051974577    3.93182671893955
H         6.57464953868731    3.60548166018775    2.25460657609060
H         7.81446799544892    2.89573589283825    1.47961950572370
