39
 energy: -54.525455000574 gnorm: 0.114851813013 xtb: 6.4.1 (79825abcba525fcdf90b791dcacef51065a7a4e7)
C         2.97273156017007   -2.42263846866519    0.85788467293748
C         2.15857920562883   -1.17399662249747    1.21227099156038
C         0.65789296473069   -1.35363200594652    0.93663194816076
O        -0.08079285089346   -0.14049633765860    1.04276222501801
C        -0.47382903378748    0.20026781737510    2.35685432089115
C         0.61740372662179    0.57816179617638    3.34087252888547
N         0.79882846904364    0.08717781211429    4.52412780389694
O         1.52570774427808    1.53177497431653    3.11862684425575
C         1.81028052489043    2.04418050154444    1.80296835955095
C         3.05535551396916    1.28847560108376    1.30693866561651
C         2.73600547592966    0.03968753687145    0.44796006248667
C         4.19704763002618    0.88017057728109    2.27676271500773
N         3.86320757135470    0.25888437237466    3.45794147882263
N         5.35809021786227    1.23094136470478    1.83733124488060
C         6.66861589422468    0.85215262794731    2.38643612003864
C         7.40843424237930    2.10200615756528    2.89084813185850
N         7.36417890383947    3.34434422537634    2.11642620296633
H         2.82366515819877   -3.19703766718590    1.61700195055887
H         4.05970072087540   -2.32502593753197    0.95250329040963
H         2.64529136971099   -2.73899295990235   -0.13036610300218
H         2.31828651191335   -1.02089745278922    2.29224864642347
H         0.18716576696911   -2.05205322880441    1.62486291427177
H         0.60477481069548   -1.67505759247252   -0.11125859424225
H        -1.08451007362186   -0.56503941668040    2.85086575663329
H        -1.15461173178098    1.04580623000289    2.25423273571578
H         0.11164769074853   -0.65250238832499    4.73468764371831
H         2.22314439286134    3.06098711991189    1.87213499490746
H         0.95910447745779    1.83956189417132    1.15145521660659
H         3.52894046097256    1.89755280758823    0.51617444542490
H         3.66046321575665   -0.31140852793951   -0.03071589697606
H         2.06706351963209    0.36085207107111   -0.36392901075040
H         2.93784705016789    0.37491366728520    3.86955018347276
H         4.56461759424400   -0.13903105052014    4.07043374197101
H         7.13491839780436    0.30076424089751    1.56110657331866
H         6.55797036008457    0.20336948567694    3.26386150567082
H         8.48588927248409    1.91226670835944    2.95164392688826
H         6.93693728891935    2.36587993242017    3.84298454800725
H         6.42003845274471    3.58412449980018    1.80420977532186
H         7.84488655539893    3.09283774226250    1.25614608715817
