39
 energy: -54.517833213691 gnorm: 0.104373924673 xtb: 6.4.1 (79825abcba525fcdf90b791dcacef51065a7a4e7)
C         3.56515991627611   -1.81227257591903    0.56754626106910
C         2.65049067090942   -0.77113400739495    1.22096099731930
C         1.26834031743635   -1.20589218025802    0.71012767451092
O         0.24999816542592   -0.22173539269397    0.86189458578622
C        -0.45477340788705   -0.37173105604281    2.07772105358660
C         0.25750101903711   -0.15472317964786    3.39963531437563
N         0.10780715071719   -1.00230927348841    4.36569058557233
O         1.11812815427694    0.84025047105004    3.63014725372972
C         1.45278194890648    1.89456777618367    2.70769391394155
C         2.81519169016366    1.69630848420655    2.02075868143048
C         2.81383878300834    0.71400784894478    0.82310099987923
C         4.03594070875567    1.38693751085117    2.92894038868540
N         3.85227784978464    0.72458050358952    4.12065350909813
N         5.09503257540994    1.65785104556170    2.24403869017825
C         6.49539926924766    1.49946367919779    2.66399248089822
C         7.49968593371324    1.49447898429486    1.49982756171461
N         7.42329137138997    2.67386312080482    0.63477920209681
H         3.30925689044277   -2.84680351484638    0.81741287535358
H         4.59759694972544   -1.88932357336573    0.92548446413048
H         3.56967214443265   -1.66947868638053   -0.51112253877513
H         2.69614671683357   -0.88686626289184    2.31632353059345
H         1.01614153812121   -2.12735074527959    1.23007772202702
H         1.26806812436529   -1.52544996810648   -0.33967863079439
H        -0.86013761057832   -1.38611163470412    2.17460083054760
H        -1.35660651287330    0.24100254650971    2.09136104229023
H        -0.51195352904256   -1.76281953409593    4.04757031551630
H         1.44787894973506    2.75932132425991    3.38689457481181
H         0.62654245184376    1.98887303574272    2.00110095400422
H         3.13048701131420    2.71339516968415    1.72632815197933
H         3.72957612173955    0.88572153788470    0.24089763161842
H         2.03987596868701    0.94296568065724    0.07587029428273
H         2.98174341152701    0.33321483660146    4.47867490575098
H         4.68591386927534    0.65369998917203    4.69116768593608
H         6.47940606581734    0.49083754012432    3.09417101576088
H         6.78644247997073    2.30819091259888    3.34538181230759
H         7.46475507891766    0.58679039770661    0.88705697429876
H         8.45864654320236    1.50113735254665    2.02789263047715
H         7.43497712829609    3.46846046264549    1.27887032760047
H         6.54339542767197    2.70151355598841    0.12543077959853
