39
 energy: -54.522069507377 gnorm: 0.112467895101 xtb: 6.4.1 (79825abcba525fcdf90b791dcacef51065a7a4e7)
C         3.52967163159656   -1.60921264257647    0.34004716157132
C         2.55699285904043   -0.81060652766898    1.21392613959354
C         1.12398227440426   -1.32869964343192    1.01805592647110
O         0.07445188701359   -0.36825562530765    0.94985202287212
C        -0.59251990136961   -0.14190389394489    2.17514758292042
C         0.34231121547367    0.02196596029635    3.35883760321412
N         0.47433179819203   -0.86197189601720    4.29441104751796
O         1.10709384873230    1.10524721237446    3.51820087872930
C         1.40212853804848    2.05252881427200    2.47411735281724
C         2.66942953998791    1.73926645143189    1.65976980202219
C         2.64144237791788    0.60719506820831    0.60292004475040
C         3.92604959208530    1.51694346414446    2.54419680533921
N         3.80128375617744    1.27832399379180    3.89331625330301
N         5.09127196181123    1.69617024539191    2.02046531524613
C         6.28164617388297    1.52268640733553    2.86627099011746
C         7.62690952785278    1.76658327790348    2.16293796294478
N         8.00223266681663    0.88937339097527    1.05175521772038
H         3.48229799989440   -2.63025499159734    0.73171311121759
H         4.47270734578457   -1.08921087827144    0.54070771713365
H         3.31188725038506   -1.56532731964385   -0.72511990559161
H         2.92849025660261   -0.91055150302534    2.24702739140091
H         0.96011471753830   -2.00127101289093    1.85700368431519
H         1.02850185999935   -1.79487806082188    0.02923253075482
H        -1.25938560544519   -0.95239742024776    2.49305348860792
H        -1.08223725845435    0.82445020926424    2.05158329987430
H        -0.14100711919251   -1.67575777080225    4.14344671387961
H         1.60038254634306    2.96011028719279    3.06244337285183
H         0.54518637539255    2.17424142950076    1.80953103572772
H         2.94121795833180    2.56918522839140    0.98306330725733
H         3.55524645519412    0.78706024596557    0.02014061644932
H         1.80512961977119    0.88378898793463   -0.05576853242730
H         2.84103854426982    1.21311272901080    4.22925264254675
H         4.65994620491068    1.16278366311234    4.41753827467472
H         6.37082713965632    0.47401578954019    3.17444745930904
H         6.24067573926476    2.20525978237447    3.72385616143001
H         8.41004316012784    1.63921410473117    2.91863984879721
H         7.76606122029893    2.80220263827043    1.83639263963218
H         7.21545075602953    0.79265953433232    0.40522948357256
H         8.18949451050462   -0.08012779477898    1.29551265199841
