39
 energy: -54.525203299131 gnorm: 0.101846385016 xtb: 6.4.1 (79825abcba525fcdf90b791dcacef51065a7a4e7)
C         3.02002158767052   -2.08857585709680    0.24418076453766
C         2.26890527913776   -0.95962865535285    0.95751285089535
C         0.78264316280756   -1.11512425116061    0.60093050275984
O        -0.05849119388039   -0.06373327340540    1.06535328340262
C        -0.37961963974325   -0.20107101699106    2.43482418631084
C         0.76594977585850   -0.17827047445461    3.42932681759390
N         0.99725477218680   -1.18699560425243    4.20588644967611
O         1.32409512323250    1.01273574415191    3.66120044728233
C         1.54919714315201    1.92931835649135    2.57321895615938
C         2.79479618071832    1.52322090838563    1.76642593551424
C         2.78991390196843    0.46087530769553    0.63917340128053
C         4.05556791189501    1.36205329085794    2.65817267323078
N         4.21792099151727    0.17288732114767    3.33059725650649
N         4.90797236133435    2.31465077706852    2.48460779647744
C         6.25629908840976    2.35725994215355    3.06999154250737
C         7.35402610436303    1.56125600566228    2.34523665423313
N         7.81279528455983    2.29199476080775    1.16174882153099
H         2.69094657259430   -2.99757475693897    0.75760513633175
H         4.10540655881460   -1.94350988383940    0.27381469239566
H         2.77376854125933   -2.27408148807111   -0.79931524803330
H         2.45051182597121   -1.08106239654944    2.03805457339949
H         0.33543423170576   -2.01389831120346    1.01955625248473
H         0.76228291232992   -1.18618822990229   -0.49394204732913
H        -0.90962190772992   -1.16107297201765    2.42187677280172
H        -1.06044363484828    0.63428724714673    2.60091674079846
H         0.38884501587134   -1.98719177771635    3.97522800437245
H         1.74522883703817    2.87426795458440    3.10026555510644
H         0.65662789672499    2.00793715812634    1.95034013185672
H         3.01464908382819    2.49957375921307    1.29848831021758
H         3.82208065662808    0.47933764342837    0.26325830994825
H         2.09577940599450    0.93548721724425   -0.06985036883497
H         3.35650964311559   -0.28003435394015    3.63392724242465
H         5.02208708719123    0.20728740123035    3.94508324169583
H         6.23698679280761    2.10725792645028    4.13758793904846
H         6.56386559787282    3.40893083745066    3.02071187624191
H         6.96893770976165    0.56463564726408    2.10221130645897
H         8.20925408722627    1.31500964232878    2.98277122214236
H         7.18251605725935    3.08889155040516    1.04309608089486
H         7.86106717311578    1.73191017310390    0.31416855175914
