39
 energy: -54.521751147871 gnorm: 0.116393271575 xtb: 6.4.1 (79825abcba525fcdf90b791dcacef51065a7a4e7)
C         3.39714451035369   -1.52569158481636   -0.21434975993151
C         2.56537146947428   -0.70643292460898    0.77787453020467
C         1.10209093280400   -1.14841793366707    0.62371788336722
O         0.12201733889870   -0.30993447637284    1.22788653408379
C        -0.27271819307689   -0.58439123869576    2.55690610807085
C         0.69914598587248   -0.20037031772123    3.65685727614288
N         0.63017698003959   -0.64713915251903    4.86917494686812
O         1.63127471599995    0.73981279441965    3.48084828894990
C         1.48225868635871    1.76048936525865    2.47560608167354
C         2.69468415603686    1.80439021059227    1.52932689101190
C         2.75278913542881    0.77424329251687    0.37402543246950
C         3.98812958297490    1.81284261376515    2.38819830947100
N         4.06009109131777    2.85512136285271    3.28324334918960
N         4.89058204305028    0.89918379440932    2.26585775257816
C         5.99536083010366    0.75614679632271    3.22579467816436
C         7.21562217587426    1.47646974428293    2.62914266075331
N         7.68617151537071    0.95786560999204    1.34278158620839
H         3.46175927742988   -2.57148524093060    0.10237490560867
H         4.41752016574767   -1.12806713493146   -0.24101748923658
H         3.01637734409934   -1.51546250759682   -1.23358897071956
H         2.94213403119491   -0.82042527684036    1.80760907296653
H         0.99516552450589   -2.16063795006689    1.00714422195453
H         0.97203626517128   -1.07238978327721   -0.46325775536427
H        -0.43357916440484   -1.66745979321533    2.61822530931634
H        -1.28261488018433   -0.18492963774243    2.65422302950027
H        -0.13526079634877   -1.32774391691218    4.98984735692629
H         1.05849480439235    2.64833629692795    2.96681711314258
H         0.63059166634125    1.60895334656610    1.81037007348784
H         2.73784245378586    2.80846934083041    1.07049329479208
H         3.80507454931428    0.85355891439465    0.06836927911564
H         2.10451035703027    1.11649130947278   -0.44597138713095
H         3.22233895814734    3.40218877353020    3.47834652228353
H         4.74624826915547    2.84138439594934    4.02786346947554
H         6.17170507952233   -0.31827881149163    3.35674645253602
H         5.54346538429232    1.05886448037298    4.17825981060270
H         8.06129964248084    1.39053723019004    3.32055553272468
H         6.87974405273437    2.51108892093576    2.50564548981229
H         6.94266203860213    1.23448637744376    0.69698790363394
H         7.71936397617678   -0.05811586076161    1.37590479863293
