39
 energy: -54.524143884746 gnorm: 0.106643719966 xtb: 6.4.1 (79825abcba525fcdf90b791dcacef51065a7a4e7)
C         3.64520314425331   -0.71754620238114   -0.20108351972051
C         2.51279103802938   -0.14413731960333    0.65704541022844
C         1.17809015684084   -0.89369823100768    0.52651972669607
O        -0.00521980935241   -0.32444808260762    1.07819926479904
C        -0.31230259988305   -0.54658606513848    2.43973904222216
C         0.85965883334379   -0.52031889426957    3.40291144123257
N         1.25703053313696   -1.55219658859567    4.07477259500351
O         1.53328679962436    0.60977073728434    3.63293364178898
C         1.38117707872059    1.81701756172166    2.86227413409922
C         2.52381256886483    2.12270906959219    1.87825992641278
C         2.39977419629400    1.39163701172198    0.51831563231102
C         3.97525257527475    1.79483463253703    2.32160277828773
N         4.26367887612529    1.78318908194023    3.66670638229067
N         4.86235018881490    1.60020375735968    1.40544955780532
C         6.29409037848850    1.26503521558962    1.42147138518665
C         6.75930872392738    0.27481294776765    2.50171592290584
N         6.96294847230621    0.86454247635277    3.82679768298108
H         3.57691797668338   -1.80803392024663   -0.13514698182188
H         4.64015887283195   -0.44317520692705    0.16602205597113
H         3.69790199844102   -0.38838450754005   -1.23685002193357
H         2.81435802222705   -0.39631608662624    1.68697780995030
H         1.20005757633716   -1.90983709118773    0.91384053949092
H         1.03117007713067   -0.80302818711974   -0.55717948075903
H        -0.81604674055450   -1.51553946962507    2.53996346488094
H        -1.00242574361235    0.26843318548904    2.65975073787222
H         0.78935757199134   -2.43670227680972    3.82454998487970
H         1.32543062762064    2.57921547621565    3.65289602175285
H         0.51166828514737    1.80824456520931    2.20294392895071
H         2.39970605466109    3.20544488253348    1.69702378558511
H         3.23642019079575    1.78925142892972   -0.07240215485535
H         1.50166784709121    1.54736957801739   -0.09727045016867
H         3.52720407268635    1.99625497688184    4.33855786914078
H         5.05745451437388    1.24274912959937    3.98811639115974
H         6.80447885946033    2.22148993247627    1.58680139668005
H         6.51595323638018    0.88507300860547    0.41676102681221
H         7.64837549969413   -0.19170971608275    2.06294103475212
H         5.97727328067482   -0.48025176928765    2.63133204217506
H         7.46214829991944    1.75738840419902    3.82753945284758
H         7.51208170147344    0.21664287721350    4.38634753804268
