39
 energy: -54.524220735855 gnorm: 0.107692110500 xtb: 6.4.1 (79825abcba525fcdf90b791dcacef51065a7a4e7)
C         3.52717958021084   -1.32553891096823    0.19009135937742
C         2.47894405764878   -0.47017932120747    0.90918972351153
C         1.11738480762061   -0.97630604326354    0.40889269564656
O         0.03717546706788   -0.23627610821761    0.96935857382450
C        -0.25157979205027   -0.54227176205922    2.31858900055612
C         0.74398486057504   -0.22065777986505    3.41736108398714
N         1.16089198145226   -1.05150133316610    4.31733924548143
O         1.24715525827536    1.00241094602894    3.60366690832411
C         1.36389519785637    1.96280547501895    2.53665591279286
C         2.67995784426373    1.96952492266152    1.73961070385632
C         2.66837460395070    1.01425131992794    0.52034103760046
C         4.01091377435143    1.79583069099644    2.52007162865224
N         3.98030798948645    1.34130511120045    3.81818519841913
N         5.02238066864351    2.19724541031574    1.82727941724589
C         6.36546839837153    2.24342766771224    2.42431979138519
C         7.23338298794940    1.05523792305536    1.97842077774801
N         6.72397278325218   -0.21355532162342    2.50354618320037
H         3.30757426173455   -2.34209943203403    0.53148873560173
H         4.56706432130358   -1.21975844579418    0.51786119938645
H         3.49070548207443   -1.21816912815819   -0.89207231159247
H         2.66921966600042   -0.66611239640356    1.97722668233619
H         1.01504649258165   -2.03366939102210    0.64244737156133
H         1.00932934890485   -0.98135228089149   -0.68312794971414
H        -0.55067733424791   -1.58840288713913    2.45579002267398
H        -1.14636768716779    0.03871294569848    2.54385078141222
H         0.86207293299697   -2.03294006445275    4.21167536078372
H         1.22090370937476    2.90191114438895    3.09052436986589
H         0.49733104754401    1.84879574107981    1.88327457844328
H         2.80702248928128    2.97116229151120    1.29112104298786
H         3.71216740900237    1.20940902098533    0.23850544061266
H         1.83095005601902    1.17734026702447   -0.17386066041640
H         3.19627201560537    0.81966870096159    4.20851797773472
H         4.77812325551504    1.15928181514229    4.41468986033436
H         6.30911528084754    2.24630793270998    3.51951478666895
H         6.86191655073275    3.14134833670321    2.03661497158827
H         8.20083037974025    1.44422630620799    2.31508101946727
H         7.20071914253587    0.91832164248635    0.89274609769090
H         6.53552580589315   -0.17018366872643    3.50802689874120
H         7.45164983955537   -0.91270296439803    2.37667651958992
