39
 energy: -54.529805454877 gnorm: 0.100915951786 xtb: 6.4.1 (79825abcba525fcdf90b791dcacef51065a7a4e7)
C         3.53323510975616   -0.76616657182105   -0.45936254571232
C         2.57477880448705   -0.20109281442445    0.59400982094300
C         1.22456936396927   -0.93331814902350    0.56106312843820
O         0.20115091876012   -0.17636007322121    1.20000575705795
C        -0.03863270599965   -0.56606286077806    2.53719356838053
C         1.18758527292845   -0.50458309892109    3.42853768781766
N         1.66080793217398   -1.53469923940138    4.05223176260366
O         1.69884236240640    0.70441730464049    3.67495527715671
C         1.48367216326136    1.88557314588167    2.87929769417291
C         2.48086277133747    2.11756651845799    1.73076076876522
C         2.22987826453838    1.29826274646007    0.44039321269208
C         3.94271704323413    1.87179033343806    2.19261439011064
N         4.16073229722868    1.85343420725915    3.55083434888365
N         4.86491667600541    1.75229573589695    1.29850647512619
C         6.24280469386472    1.36323203665611    1.63395943541776
C         6.44209228289168    0.24011283574985    2.66487370821074
N         6.70788685236293    0.81624385446346    3.98491841834797
H         3.36627501819511   -1.84158895246508   -0.34203826483079
H         4.54465536553041   -0.42014941371342   -0.22002169783175
H         3.17337575462577   -0.40204618608861   -1.41949505165267
H         3.03832112470809   -0.37813341873580    1.57842978182243
H         1.25520074169382   -1.96045051048777    0.91757258786987
H         0.95421123714721   -1.01729217736471   -0.49915636902084
H        -0.37107450473720   -1.61072381603718    2.50821540255318
H        -0.85398504923863    0.04825377703210    2.92026941141852
H         1.18310244855010   -2.40520122875958    3.77347842694306
H         1.43413640580054    2.83827444737613    3.42614568570700
H         0.51179784009873    1.74259826783352    2.40405322644601
H         2.38105679225834    3.16556005264463    1.39562777814301
H         2.80248264451681    1.74273514519683   -0.38519127250162
H         1.18498351808119    1.49066229927287    0.15583873207984
H         3.50386658989034    1.38598211377191    4.17468738766337
H         5.12455348153421    1.80670675896294    3.85795772516631
H         6.85397742481923    2.21492103891066    1.95603051040504
H         6.55704778034483    0.94882284853551    0.66827127227143
H         7.22982896353373   -0.41150602842948    2.27057647368503
H         5.50373276037345   -0.32378644689184    2.66364543537852
H         7.73004254032158    0.84445727914386    4.01278638959951
H         6.38646383469619    0.16032478517915    4.69264340277366
