39
 energy: -54.521106626598 gnorm: 0.117599033880 xtb: 6.4.1 (79825abcba525fcdf90b791dcacef51065a7a4e7)
C         2.68471494128174   -1.79114466813128   -0.24018345415990
C         2.17297636501104   -0.86567609108294    0.86849672092567
C         0.65916715627461   -0.92644253395906    0.61355736634978
O        -0.21055470954558    0.01083384688641    1.24102480052232
C        -0.38276924637028   -0.17027322405969    2.63205969167443
C         0.80631678261677   -0.12275423885105    3.57317657765192
N         1.01171975471367   -1.00515245147978    4.49689529471924
O         1.69111758710591    0.87706166888923    3.60899716507398
C         1.66218598496492    1.79778444484787    2.50177953953764
C         2.84935938742703    1.69506721741972    1.52842678257247
C         2.70758891923885    0.53933888273908    0.50691149888293
C         4.26456802474667    1.57949059416390    2.15656624267032
N         4.54397215774580    0.39488507769524    2.79787128802518
N         5.03683624246334    2.58848455549219    1.93364681647717
C         6.40698571185074    2.75225621901730    2.44192224314519
C         7.30094831342989    1.50590747679520    2.33542250111905
N         7.19639912281551    0.52873349198355    3.42137471318142
H         2.38909317676654   -2.83954121436794   -0.13226493249418
H         3.77718552765225   -1.71078650448415   -0.24596563373751
H         2.24980361424214   -1.38631496639878   -1.15172165476243
H         2.39184910415598   -1.25928058398410    1.87471127905299
H         0.29735766795784   -1.93516207871518    0.79961364238241
H         0.59573982968199   -0.63963773536949   -0.44376496894586
H        -1.07692890524765   -1.00654530692010    2.77856962939149
H        -0.86780277179188    0.76575858854808    2.91048097063662
H         0.41239052008441   -1.83863513473063    4.39794706878825
H         1.78383642062008    2.79503823558049    2.94879446881305
H         0.63995522117910    1.85533207451229    2.12419333152460
H         2.81218694925393    2.65932568286164    0.99047731515563
H         3.73101606627984    0.31647806000944    0.17532263813303
H         2.13480258594033    0.88206871571221   -0.36730011571151
H         3.79305435529746   -0.29451879162940    2.80249670946712
H         5.41432117050659    0.36778591655210    3.31480236030370
H         6.36477182688283    3.09356694042671    3.48324881094929
H         6.82497245917415    3.52521959093503    1.78552905184575
H         8.36206465672250    1.76737661329753    2.25622321979244
H         7.05407187670636    0.99823228158795    1.39743506944557
H         7.36302767141760    1.06651413005628    4.27542493563124
H         7.85826186981593   -0.23660764232562    3.31838011908554
