39
 energy: -54.522368851685 gnorm: 0.097691245204 xtb: 6.4.1 (79825abcba525fcdf90b791dcacef51065a7a4e7)
C         2.84227285877822   -2.64385646612247    0.67656317344580
C         2.35322183651769   -1.33657629297689    1.30853455982165
C         0.82144304105811   -1.45289633340599    1.32923045054473
O         0.03664100258837   -0.28356860119299    1.11621183840337
C        -0.71436131747412    0.21265741771620    2.20579475562887
C         0.16549025202016    0.64171420744958    3.36495656262119
N        -0.06730517169244    0.34936776566815    4.60367084930213
O         1.38459471815826    1.14167211558342    3.14675072839618
C         1.85455388455005    1.81651932915859    1.96428807784465
C         3.03781015471115    1.15339152659137    1.23798704664804
C         2.77590368993196   -0.13944139416139    0.42602131904481
C         4.25767522226781    0.93975344658960    2.17448081217181
N         4.16780845169059    0.47297332319305    3.46547628673112
N         5.38817548020596    1.24543239516929    1.63347284100558
C         6.71485925561081    1.15785021247903    2.26173564188380
C         7.27949546115761    2.42500578862513    2.92460758322853
N         7.96218651185556    3.34009978476577    2.00720492169109
H         2.53301751527549   -3.49042047944521    1.29774306546561
H         3.93663464619444   -2.63454418477676    0.62893535227314
H         2.43446004119658   -2.62600204266663   -0.33205308954380
H         2.81656320011977   -1.29648114127789    2.30803677184417
H         0.57487050516582   -1.95300365018823    2.26311096641571
H         0.53302788204251   -2.17292672748138    0.55296795505756
H        -1.41488325722542   -0.50540590162742    2.64888376460480
H        -1.32263489967209    1.03473937457233    1.82748803469358
H        -0.96359532586681   -0.15676696702172    4.66825610975084
H         2.10764504296000    2.85822922557431    2.20907703517764
H         1.06397859035315    1.99572367942251    1.23372985786307
H         3.37887850185417    1.89471986418557    0.49322502154190
H         3.73987312996590   -0.47423574745165    0.01896248429775
H         2.11807546309823    0.00643361923599   -0.44333267129093
H         3.42364174951134    0.79197778994697    4.08485395624721
H         5.00320791837403    0.43887956022601    4.03679479734076
H         7.39240119871237    0.96623331829742    1.42098839998178
H         6.83472787108479    0.43773697321138    3.08033551094582
H         8.02945112665823    2.15781775558185    3.67745788940628
H         6.49090794424378    2.97351759712891    3.44974282519850
H         7.41360364222159    3.46356364366568    1.15269431295106
H         8.83260779540403    2.86389321680261    1.78357279329450
