39
 energy: -54.527111687118 gnorm: 0.103814440830 xtb: 6.4.1 (79825abcba525fcdf90b791dcacef51065a7a4e7)
C         3.36633369912926   -1.33206242026281    0.21604340772661
C         2.31071450051277   -0.39030348121703    0.80451463042177
C         0.91328560380596   -0.94775110235148    0.49346869654747
O        -0.17083715639907   -0.28718843322140    1.13918791715652
C        -0.30514155646657   -0.47284795158178    2.53379486406934
C         0.81182447555273   -0.09511470688471    3.48856659849425
N         1.13363703319389   -0.90178075708381    4.44762853138611
O         1.56976921217932    1.00427256321888    3.46297763487354
C         1.51773945092034    2.04950391369308    2.47339052592573
C         2.75990259376366    1.97814797947607    1.56824625979852
C         2.39871975687014    1.08627339266915    0.35440649013165
C         4.09734743482552    1.62454382473181    2.27318453029860
N         4.26167006292966    0.55639831829959    3.12447312784784
N         5.07940511189603    2.36518351785557    1.88437142146965
C         6.46444727883901    2.32322230172321    2.37668441078173
C         7.10875837506429    0.95010854532333    2.12505305192257
N         6.95257772612479    0.05694667810452    3.27525356601904
H         3.18058796755839   -2.34168892315431    0.59594707748390
H         4.28624543291897   -0.87072859009609    0.59143167140169
H         3.46111475309244   -1.33783312190887   -0.86789389907832
H         2.45266407236441   -0.48257912848594    1.89384150457181
H         0.92512157000617   -1.95917183847664    0.89337639328965
H         0.66945242256017   -0.91296025498574   -0.57589817570230
H        -0.60060110967217   -1.52267682165765    2.64884605136492
H        -1.19919607829198    0.10659561795972    2.76583608466535
H         0.63053122281460   -1.79542581026504    4.55700275184206
H         1.41519517741096    2.97164126034137    3.06354615092817
H         0.56512718369703    1.93565118403667    1.95338453505258
H         2.90725030017856    2.99102918246198    1.15240239998054
H         2.99586786135069    1.37419029165681   -0.52168666785882
H         1.37262968239167    1.39852213975699    0.11061610447860
H         3.45186143838450    0.27950641750188    3.67829394431587
H         5.24432308073184    0.44860687001567    3.34409450290738
H         6.53035970709391    2.57054969125793    3.44304305189147
H         7.01042955125261    3.08095322790192    1.80154571948489
H         8.15927359007400    1.04494528300893    1.82835403595449
H         6.68564681970133    0.48229738798155    1.23027272478221
H         7.64699107858722    0.23949541809741    4.00384187478272
H         7.17049812729446   -0.90819393324512    3.03981454298303
