39
 energy: -54.525521834866 gnorm: 0.108332314836 xtb: 6.4.1 (79825abcba525fcdf90b791dcacef51065a7a4e7)
C         3.33713907022159   -1.74639937136902    0.43155113892932
C         2.44790865438089   -0.66164811524956    1.04809321845409
C         1.00971193501185   -0.98068852611165    0.61207905426855
O        -0.04403082788364   -0.12471966792822    1.04284815566446
C        -0.42231633338728   -0.48182498243981    2.35693017545068
C         0.71813681101898   -0.51214396585170    3.35709616128506
N         1.15263561116060   -1.51430800433785    4.05060266806220
O         1.48968441102622    0.55849167640706    3.56262238725698
C         1.53546322018873    1.70511920456484    2.69219265471701
C         2.78644071245223    1.84458888332345    1.80734770318688
C         2.74310107061297    0.80547246889490    0.65945440647292
C         4.14231446326982    1.89856516812832    2.56195057772334
N         4.14540857920811    0.99179907155976    3.59654939591960
N         5.10269003445325    2.67431027542420    2.18770686718324
C         6.35402031706096    2.43067471823053    2.92070679422983
C         6.99414332732097    1.13088398368479    2.40623317028181
N         7.27579481673272    1.14632687521957    0.96903948139601
H         3.15186607335745   -2.70628733155414    0.92395642732999
H         4.41333188382400   -1.55758252941342    0.50990972944329
H         3.09563283231340   -1.88681925123619   -0.62006372698197
H         2.49905353747147   -0.73484736674971    2.14687598770366
H         0.76645812192154   -1.96802494718357    0.99812637639357
H         0.95544810656151   -0.92684418402497   -0.48262033636510
H        -1.03352904880432   -1.39182529984593    2.32543057143325
H        -1.13597981651706    0.28513714273354    2.65922970653952
H         0.59378711329642   -2.37558556402870    3.95278148032114
H         1.34227170134054    2.60061083156022    3.30039332318604
H         0.72447028963863    1.63137334783524    1.96576934132737
H         2.76760773356333    2.88445151491745    1.43465906645066
H         3.67162093626462    0.84360495114760    0.07343564622628
H         1.97279840267908    1.08262762268704   -0.07512892632958
H         3.30221918175923    0.58172859260180    3.99661247896550
H         4.85006083007984    1.09878327498128    4.31590958355040
H         6.26767873737649    2.45167459093450    4.01374850504788
H         6.96477318088339    3.33358296690500    2.79915453257259
H         6.17949119215220    0.41143425457518    2.54530337558659
H         7.83506655495277    0.82801292888120    3.03838801930379
H         7.70358517489260    2.02274387591386    0.66039158927661
H         6.40709000009039    1.16806608427210    0.44055430282675
