39
 energy: -54.529189303855 gnorm: 0.110696329955 xtb: 6.4.1 (79825abcba525fcdf90b791dcacef51065a7a4e7)
C         3.29792324840879   -1.98519321438337    0.43555343388236
C         2.42458091156141   -0.89222283403889    1.06023662524702
C         0.97541390243778   -1.35693628338478    0.84985284391320
O         0.01180501598133   -0.34556666714497    1.12771599220379
C        -0.47203931112228   -0.33136580443386    2.45554455234757
C         0.60720258193184   -0.12965309285786    3.50265177394544
N         0.75988536327812   -0.80470946414131    4.59583982082180
O         1.38855908246174    0.95310871749017    3.47271364922423
C         1.51226516162025    1.86230947732737    2.36251136408871
C         2.77857007013747    1.67230726056276    1.50944738850146
C         2.76018221127588    0.50554217063127    0.49081034114501
C         4.00392030961488    1.42683462861931    2.43085533850464
N         3.92360285049591    1.63188768368127    3.78884333939860
N         5.08758306321402    1.20255664242739    1.76788134147176
C         6.37704869034819    0.78288767934330    2.33676709711574
C         7.40417031084809    1.71112198180224    1.66796309968099
N         7.53346235234684    3.07495266812467    2.18597967240718
H         2.92758637436761   -3.00777793734513    0.55942850818676
H         4.29697225328583   -2.02792317097777    0.88283196364476
H         3.43478884970228   -1.90154261369185   -0.64064692884674
H         2.63545825531375   -0.95279710018855    2.14058796538467
H         0.86734429582721   -2.31204752623579    1.35889275774244
H         0.90713275380567   -1.60842637936628   -0.21612133468905
H        -0.96087050301343   -1.27368870495032    2.73076338645508
H        -1.18080955715503    0.49704256136289    2.47331501610784
H         0.30195551002110   -1.72700119556866    4.53789264457147
H         1.66804963134383    2.83076445856212    2.85946452308642
H         0.58251370688915    1.79095373737893    1.79566975852071
H         2.93692189758564    2.60724506283155    0.94254192209662
H         3.79330631575693    0.40711182352806    0.13027284187502
H         2.09486497397245    0.74143668105596   -0.35269461897128
H         2.96199501375306    1.69324669415689    4.12159261664384
H         4.45638823697256    1.10039773782302    4.46642555952043
H         6.64897387480437   -0.22940038072315    2.01433009185720
H         6.54494292592356    0.83453791216978    3.41944021962566
H         7.12151529671569    1.84625023933284    0.61798546596119
H         8.44294178237582    1.36689171321662    1.69897689221074
H         7.61076515300291    2.98369953571143    3.20188912412284
H         6.61623749511814    3.50272158916599    2.08533402042003
