39
 energy: -54.527429306408 gnorm: 0.110670670205 xtb: 6.4.1 (79825abcba525fcdf90b791dcacef51065a7a4e7)
C         3.60542796823408   -1.51194326995812    0.22173337742351
C         2.58691362260023   -0.72730038270545    1.05510258640673
C         1.19401111207560   -1.20164408302610    0.61337236322794
O         0.14518835435836   -0.32941682396829    1.02301725634546
C        -0.38104237780453   -0.51880856525729    2.32095702274957
C         0.46967193412080   -0.36568789077758    3.56784265692463
N         0.40055479801335   -1.12017978566814    4.61666962625227
O         1.21837943726981    0.73051192389829    3.71471134825009
C         1.39533913075754    1.74174478473226    2.70446798393106
C         2.70689405067213    1.84071499860235    1.90610987872138
C         2.75141573154863    0.78421469240617    0.77424185091155
C         3.94656288556093    1.59270973642849    2.80746840024380
N         3.79799289515947    1.31481819501252    4.14662197889716
N         5.03115588385661    1.84130378047741    2.15476699412108
C         6.37468096437200    1.61849087686209    2.70953668607523
C         7.39758380672731    1.14417038853148    1.66426812155319
N         7.61071085773723    2.10405746144706    0.57877956447484
H         3.31521706819126   -2.56734788571256    0.23025876680571
H         4.64241218743001   -1.45322823466689    0.56987001354978
H         3.50821515517898   -1.14780377585225   -0.79899623131992
H         2.57542770074193   -0.86967460326151    2.14821518942311
H         1.01310015781743   -2.17455232828915    1.06476900822822
H         1.00512958059705   -1.26000161930827   -0.46603890763967
H        -0.87380782066037   -1.49090216335225    2.44298173581269
H        -1.15468603668631    0.22809073285787    2.50136875404885
H        -0.18017697389758   -1.96582150189007    4.51027248068351
H         1.17874691389498    2.63435065856347    3.30901644644608
H         0.65476169091575    1.81895669408476    1.90670725248939
H         2.78868528224807    2.82946619374226    1.42005735846003
H         3.72923127353153    0.88060511139753    0.28270661428621
H         2.01910764874075    1.10388759888218    0.01837944864168
H         3.03554097578696    0.67464748782088    4.36576845376535
H         4.63805242436027    0.95032405503159    4.57894536867287
H         6.42256049236531    0.89064814944764    3.52843140202117
H         6.69651352241719    2.57474865545248    3.13969035821453
H         7.07926147392100    0.16857670189164    1.28021814717221
H         8.37102062972834    0.91192339105562    2.10809757719583
H         8.23043185356768    2.83422288710141    0.93819465789250
H         6.65092668192405    2.39823621867786    0.41540750235603
