39
 energy: -54.518568253106 gnorm: 0.117993679559 xtb: 6.4.1 (79825abcba525fcdf90b791dcacef51065a7a4e7)
C         3.18449244457798   -1.74263241678040   -0.11622345508030
C         2.27884513090794   -0.93581768854141    0.81993524750934
C         0.77372457527151   -1.16002299922270    0.60863207379479
O        -0.12145839488938   -0.18768737321049    1.13950813424207
C        -0.33443426224601   -0.43682658182630    2.51428324124201
C         0.66363866646822   -0.24065805180103    3.64000652720069
N         0.80384806559886   -1.03207330721039    4.65394757032158
O         1.46187621581473    0.82980729996595    3.61339580881079
C         1.57940832921574    1.85618388868791    2.60978452127143
C         2.78845429425683    1.60258419824918    1.69259198419928
C         2.65691483766734    0.54256921894311    0.57082287779800
C         4.13122556542709    1.44368109470224    2.45577462554102
N         4.25485304402047    0.30432451059497    3.21683433309028
N         4.95839926673765    2.40632723149223    2.22500161683918
C         6.22195148999194    2.56279434473237    2.96081985005766
C         7.28231095815862    1.50908180529473    2.60134215862390
N         7.91339032722016    1.86353432846107    1.32808099827804
H         2.71134805691203   -2.72101042703410   -0.24693233173762
H         4.19632640946673   -1.71658312404254    0.30269934268623
H         3.17330516188108   -1.27506443173928   -1.09866524075901
H         2.63932236493189   -1.12817991599905    1.84382510911358
H         0.44984999996208   -2.13741976338001    0.95911600138786
H         0.67698528600351   -1.01056026962361   -0.47419429091662
H        -0.75404555381861   -1.44952592387887    2.54653513025730
H        -1.12508208487236    0.26868453234386    2.77130767227810
H         0.11628989445509   -1.80070603450432    4.66607813549884
H         1.70889741746183    2.72253010949927    3.27447474239378
H         0.65717331190688    1.96323449391048    2.03632000783762
H         2.91904533533432    2.58800807484127    1.21045966652637
H         3.67914900716399    0.53577129415921    0.16831532196152
H         1.79749861154218    0.87409735791971   -0.03024843009849
H         3.38419716186908   -0.03434891024475    3.62479914679149
H         4.97663921332043    0.15121070015201    3.91040507956966
H         6.04146569317705    2.65934380201487    4.03819588709206
H         6.59029376042948    3.53628072216137    2.61486383222693
H         6.83504255062305    0.50883215611452    2.59371691750659
H         8.02507828179064    1.58004836528351    3.40244324781293
H         7.10879711951600    2.09358107981510    0.73979268968517
H         8.27858137298423    1.07622269376234    0.79780453706622
