39
 energy: -54.528277249504 gnorm: 0.105918502851 xtb: 6.4.1 (79825abcba525fcdf90b791dcacef51065a7a4e7)
C         2.84318016030044   -2.65389434792365    1.25671303069312
C         2.06293075506456   -1.34397113672842    1.40788253054973
C         0.60155232882278   -1.47369140171327    0.95197608418092
O        -0.05594181423359   -0.21036374965277    0.96995415079045
C        -0.63340559668878    0.16646784976912    2.20363530963755
C         0.31477522460681    0.58218322156966    3.31269728413216
N        -0.03949074503665    0.44637574830266    4.54967957722278
O         1.51509204025377    1.15490740828107    3.19016587070822
C         1.98044417018727    1.80729939017129    1.99336579722224
C         3.15114169858866    1.12310641728558    1.26625207062143
C         2.78118679503444   -0.23070237922196    0.61078626967906
C         4.44836415180548    1.02997994397083    2.11435229670045
N         4.25971661950012    0.23052028609858    3.21793982322810
N         5.51524137005854    1.50554521126394    1.56683903520448
C         6.84526338323741    1.20296674630877    2.11635006484887
C         7.41819948903165    2.35139943154962    2.96295689054438
N         7.59995703028704    3.52297245135978    2.10303096329309
H         2.39580195630767   -3.34806274552652    1.97515365463763
H         3.92142555296478   -2.53727673661999    1.41088841940714
H         2.76293970226458   -2.94767601160460    0.21211232227831
H         1.86387261136098   -1.16232409363884    2.47684357433178
H         0.04782198847363   -2.23635032384769    1.49490539298312
H         0.54323994309160   -1.69666564005134   -0.12091379158385
H        -1.18087615161488   -0.66021309799815    2.67219522024247
H        -1.24636039692473    1.02815663590901    1.93772118914069
H        -0.99646336069701    0.07703008400198    4.65676298707282
H         2.43455756241557    2.72443694852649    2.39557969829706
H         1.15557609707165    2.01783949146064    1.31064745310843
H         3.50547169856838    1.85019297157027    0.51368233887065
H         3.73600821711631   -0.60384516680106    0.21568913979339
H         2.17319604953541    0.04988336373919   -0.26180341730531
H         3.35782622187721    0.21257081308302    3.69275364317022
H         5.02098749684314    0.14824412671589    3.88062887995460
H         7.34205116914163    1.02982801065252    1.15413339162238
H         6.81426326984155    0.22015911503756    2.60231865534855
H         8.33582673852019    2.01060716023542    3.45532605401212
H         6.68210550467952    2.59403505658327    3.73612964259218
H         6.79474906375665    3.55427627152801    1.47292377151166
H         8.46807784135713    3.50069945547090    1.57360919702495
