39
 energy: -54.517171764604 gnorm: 0.114656522277 xtb: 6.4.1 (79825abcba525fcdf90b791dcacef51065a7a4e7)
C         3.06370251984352   -1.23751515695614   -0.52266715336578
C         2.28805225841846   -0.60829888166762    0.63922514945907
C         0.81051718301176   -1.00112374111146    0.48795168418021
O        -0.09905164581901   -0.22687014962073    1.26373157275469
C        -0.34524377337111   -0.62833264899308    2.59626787138002
C         0.92093648033913   -0.44974216789015    3.41283240491593
N         1.72167191313684   -1.31174026072888    3.95121452392376
O         1.31402591596622    0.79249082560827    3.70630354608599
C         1.31886787568400    1.86762786195185    2.74789066900369
C         2.58460318842962    1.78850619969198    1.87668405220966
C         2.50791784918062    0.92152382188252    0.59537175389241
C         3.96527171885755    1.73142917433193    2.58465949559929
N         3.91503730374814    1.34993870824926    3.90548143129664
N         4.96186213016015    2.05555899396814    1.83239125597342
C         6.25257742924907    2.31045881434370    2.48931951917319
C         7.22265978573408    1.21655710151000    2.96494098746333
N         7.87057060953526    0.37910954718198    1.95301959965931
H         2.93164149069284   -2.32342443313165   -0.56184468394457
H         4.07721364869858   -1.05808357434132   -0.14772402547112
H         2.98694241466313   -0.77408592994638   -1.50413445866289
H         2.70316581403680   -0.97830657571300    1.59110358123148
H         0.73026032186281   -2.06203545874502    0.71392363055292
H         0.56574724882627   -0.82752089211106   -0.56758621685497
H        -0.82192818164498   -1.61477451936452    2.64503466603916
H        -1.06222587476412    0.12151540265902    2.93182121312600
H         1.49601965015851   -2.29526117450841    3.73803072266690
H         1.46827111351777    2.74187876962681    3.39789091175617
H         0.42326600813501    1.91756734494704    2.12640683587288
H         2.60406624414150    2.82156429017732    1.48556004787346
H         3.49371633480003    1.14881651081227    0.16693201171958
H         1.85477176614218    1.40666882060692   -0.14478254329118
H         3.21407782389737    0.66531190492258    4.18676169424283
H         4.78889818038016    1.14386337169153    4.37383986661077
H         6.13547938179811    2.91379496521158    3.39756485044188
H         6.95543202407443    2.84641052545665    1.83986705915401
H         6.75106261118702    0.46404865198732    3.60676157613243
H         8.05984220228935    1.70670224355786    3.47227307102304
H         8.03097355601816    0.96178360512507    1.12770953230209
H         7.22675542339830   -0.32475311241464    1.60017884660575
