39
 energy: -54.531669871585 gnorm: 0.093075094660 xtb: 6.4.1 (79825abcba525fcdf90b791dcacef51065a7a4e7)
C         3.19077876328079   -2.24773472990397    0.83656157158579
C         2.33464174889267   -1.03738499479096    1.22337302835795
C         0.89524440749438   -1.16200661965202    0.70096543527716
O         0.01150589382214   -0.07997155626965    0.97813844001570
C        -0.64135056327179   -0.06636969331767    2.23154544121784
C         0.27512716849897    0.20382997982244    3.41008067752668
N         0.21311412883103   -0.37861795515248    4.56376261558740
O         1.22193243450522    1.14112207443907    3.31610883621265
C         1.66967270702520    1.92187900234139    2.19163314977388
C         3.02908197785520    1.48432728389433    1.61900586696749
C         2.86846472934167    0.29248833765392    0.64277723660340
C         4.22584316695878    1.12199931771378    2.53944797776722
N         3.82315598326694    0.50644657630946    3.70201706657253
N         5.40196483961012    1.51275129441211    2.18138268061687
C         6.66757867769321    1.27571249283414    2.89167053982818
C         7.64074302753944    2.32902517697383    2.33725186712702
N         7.71150371838041    2.24463772070545    0.87678501570766
H         2.55051671802031   -3.13529675659546    0.85828975375438
H         4.11489688805006   -2.35520830040426    1.41486769020569
H         3.45072550231897   -2.04600645662065   -0.20058366209634
H         2.20284530077905   -1.00677691556093    2.31744357247764
H         0.47593396132762   -2.08028251672161    1.10591763999271
H         0.88028576584365   -1.21726367312230   -0.39490564750324
H        -1.30323261513423   -0.92733408089905    2.38427478786096
H        -1.28405057784656    0.81320267643011    2.27866880476129
H        -0.61818052882715   -0.98755094740407    4.60653486898166
H         1.77981373843268    2.93097108185225    2.61440780864743
H         1.02179334631608    2.01183280595679    1.31813475135146
H         3.26230199814456    2.37758808565363    1.01216209964083
H         3.85458088285185    0.24434467890743    0.16082458715130
H         2.19588716605363    0.52194317065709   -0.19673676988574
H         2.85434237629653    0.56147979617261    4.01434408422117
H         4.50732425061290    0.39496105504419    4.44022046263537
H         7.02716559481677    0.25899909998613    2.69260480844691
H         6.63730587432690    1.49747187364744    3.96542267200752
H         8.63605999054655    2.26951464969899    2.79157463000944
H         7.26099267038079    3.31150414110485    2.63562622262463
H         6.73682227328499    2.23699462822864    0.56644240644188
H         8.21349480780495    1.38974598189764    0.64966765220014
