39
 energy: -54.522047386681 gnorm: 0.114066489029 xtb: 6.4.1 (79825abcba525fcdf90b791dcacef51065a7a4e7)
C         3.44821025045196   -0.40179420385339   -0.90362006413309
C         2.73943406694860    0.01445869166533    0.38940352910059
C         1.56182401684013   -0.96485005267857    0.50979402472231
O         0.52107624999285   -0.50132255408461    1.36454828721690
C         0.48255300918352   -1.11567658214874    2.63675926019976
C         1.47887599025658   -0.53018456347945    3.61982802952847
N         2.23854380198936   -1.25455882764128    4.37630668955169
O         1.51167718342537    0.79347608808846    3.79485359264212
C         1.16482169146207    1.69870093564090    2.72960360323208
C         2.33054184636973    2.15608869658638    1.83560135535027
C         2.45859505122312    1.53454063780356    0.42259722944990
C         3.68990864912952    2.02173187619352    2.57370889083601
N         3.68735910112785    2.31607618737503    3.91757792380121
N         4.72519664230717    1.91056273280612    1.81214452684147
C         6.03737006406867    1.80037795611106    2.46677027815198
C         6.33678340804604    0.38493340483435    2.98712102208271
N         6.25649538704215   -0.77979821038784    2.10278746678562
H         3.42054449582605   -1.49366291198126   -0.97594764761550
H         4.47740056889826   -0.02847285300309   -0.94078592735755
H         3.01916805114497   -0.04689599021883   -1.83844993057553
H         3.51192722552141   -0.12911212280372    1.16266884246519
H         1.87529709971315   -1.93177168089030    0.89687972961020
H         1.09994177646031   -0.96133892210780   -0.48562698919342
H         0.56510487438125   -2.20715435928847    2.56941515458974
H        -0.51524495400539   -0.87647014490585    3.00569146883841
H         2.17086368413173   -2.27209423491900    4.22229125357298
H         0.76664297198061    2.60470482791895    3.20892284258957
H         0.35391877693622    1.40385058690648    2.06151787879498
H         2.16001045977484    3.23880874758428    1.69702961075790
H         3.39045199455421    1.93330379071662   -0.00125629405669
H         1.59026063968055    1.65453356099755   -0.24177532595628
H         2.82391516516290    2.30115237441796    4.45925908559722
H         4.57254034396428    1.95846920808633    4.25526257546344
H         6.13124937491684    2.39013611045231    3.38655723064138
H         6.87917484246368    2.01507579088210    1.79721305884836
H         5.69665201018448    0.07478532442361    3.82057557592474
H         7.36005911915418    0.45491319279226    3.36989008072163
H         6.74761262922904   -0.47161110979316    1.26005415416871
H         5.29277070659058   -0.99667627060872    1.86068029672220
