39
 energy: -54.523731796634 gnorm: 0.114920483900 xtb: 6.4.1 (79825abcba525fcdf90b791dcacef51065a7a4e7)
C         3.74748737277382   -0.62112621561002   -0.29269953796722
C         2.64217702519423   -0.21578628722111    0.68787619689609
C         1.36519056553980   -0.96729356191630    0.28186220381412
O         0.25552997948449   -0.49528079690850    1.03980405929714
C         0.28836901345382   -0.88674034879286    2.39741839700135
C         1.22509560004830   -0.27839763515640    3.42423242464136
N         1.85126073691596   -1.01076209614617    4.28773271879661
O         1.38332032542959    1.03254044467751    3.62471607351798
C         1.12686266293886    1.96052567195212    2.55346856887567
C         2.33515743141887    2.20277145423365    1.63222601239866
C         2.35006788365859    1.27361796006526    0.39297148419780
C         3.64713341313382    2.15870606406419    2.46138816819980
N         3.72642293223244    2.83060685190258    3.65925775255389
N         4.52909223971582    1.42377513410597    1.87301308873989
C         5.93596248148943    1.27992943128016    2.27612494603232
C         6.23358836699870   -0.10974923159144    2.86273262490176
N         7.66779540487609   -0.32677605239137    3.06531907833587
H         4.17019896070830   -1.60978924381660   -0.08767689336227
H         4.58006546148105    0.06359194513622   -0.09787238844126
H         3.31643191349018   -0.55880361709198   -1.28981734747420
H         2.87927731970873   -0.33583009789452    1.75776892652673
H         1.52569765521075   -2.04136687853895    0.34221242588100
H         1.01669454660719   -0.81039292524424   -0.74679869816738
H         0.37475248285735   -1.97006224982621    2.54447396629947
H        -0.73437762312084   -0.69634250574867    2.72402129230183
H         1.79884399531772   -2.02076851477262    4.08569514166886
H         0.93197972397498    2.83321441183816    3.19344614557159
H         0.20636625646048    1.76121486463272    2.00228767314499
H         2.20662951815272    3.25449103870345    1.31928464975475
H         3.14621912694473    1.56083545761651   -0.30750731035459
H         1.34252231166298    1.31960290826102   -0.04581226573755
H         2.85465327452076    3.09775903163243    4.11513493566666
H         4.54519954727198    2.74336207275956    4.24870893318076
H         6.28028552742083    2.02435589987395    3.00407199800854
H         6.55662845957851    1.34721687314868    1.37430264831198
H         5.59260951710691   -0.81899399501836    2.32726599556561
H         5.78618325293094   -0.15353149668768    3.86093815494411
H         8.08380021415532   -0.27720718611160    2.13212145895224
H         7.96699539441922   -1.20789125138765    3.47584630806332
