39
 energy: -54.527614505059 gnorm: 0.100155880269 xtb: 6.4.1 (79825abcba525fcdf90b791dcacef51065a7a4e7)
C         2.80890640686952   -2.51398143073934    0.72873345046984
C         2.13782975846280   -1.22450126598117    1.21292062109712
C         0.66288560656772   -1.30624917205782    0.79082824094726
O        -0.00888121265133   -0.06141415688160    0.95736245735177
C        -0.48553056240054    0.26658111049586    2.24680426949451
C         0.45455725988822    0.36298407862652    3.43374402580872
N         0.19790214486540   -0.17107276709032    4.58395474090901
O         1.47163268212176    1.22393315201240    3.34367904207920
C         1.87473494309553    1.80131375285532    2.08724020642289
C         3.15983139753209    1.20308636902312    1.48891067714062
C         2.80294932538665    0.01194085916952    0.56527228880503
C         4.32225083791646    1.04754307831950    2.50641740772172
N         4.18986768962519   -0.05388306482011    3.32002924614336
N         5.31643266988257    1.86260081371492    2.39944326015702
C         6.55852067519897    1.72841829673453    3.17512817908661
C         7.43948109467724    2.75609548418494    2.44596092939077
N         7.79643953724862    2.35603842844069    1.08301310618557
H         2.24995240354655   -3.39595213932115    1.05717224719681
H         3.83023298920820   -2.50178471582504    1.12461992478990
H         2.88410327282971   -2.50176180579092   -0.35668487909015
H         2.29609100628951   -1.17570649114650    2.30281509329366
H         0.13422055908975   -2.03424228976046    1.40203806591578
H         0.57255815868428   -1.51363185199917   -0.28297058067343
H        -1.25921719459907   -0.43776216947809    2.57541244436804
H        -0.89058711027334    1.26102503206008    2.05722061967061
H        -0.66475965364722   -0.73597554037607    4.56448312332368
H         2.08348257916491    2.86271765674783    2.28468000906974
H         1.14326311868558    1.71507532111769    1.28203791578698
H         3.45655537840619    1.99467048080244    0.77763345767941
H         3.59160450186140   -0.35782283819552   -0.10429402246105
H         2.04231821256679    0.48699312794905   -0.07156327184482
H         3.27501067601144   -0.08506614936572    3.76862807283861
H         4.89556554682634   -0.12981304430898    4.04230667206170
H         6.91042952968087    0.71716506316708    2.93814060918261
H         6.43901392258302    1.77188250470439    4.26456212101046
H         8.39704173007074    2.91348529008339    2.95479549490216
H         6.79153766531722    3.63473822677832    2.52756210283468
H         6.97545717709262    2.18526252303733    0.49718170901603
H         8.41713550803064    1.55362338522155    1.01032303743368
