39
 energy: -54.520908560867 gnorm: 0.119773646974 xtb: 6.4.1 (79825abcba525fcdf90b791dcacef51065a7a4e7)
C         3.50233776424158   -1.48599622757304    0.20594041578876
C         2.43880584024397   -0.58506751529661    0.84215387981082
C         1.03700205688425   -0.95268086863084    0.33214247223969
O         0.00491083626610   -0.34461861604692    1.10264010502161
C        -0.21517126700240   -0.79147519081140    2.42525829628327
C         0.68420958443285   -0.41999220939748    3.58930269219175
N         1.02870661357078   -1.18357901449086    4.57537084202451
O         1.20286934020989    0.80955950697067    3.64391267452601
C         1.32910186133299    1.82793839783300    2.63323551980362
C         2.65842911233350    1.82585902498340    1.85848900899573
C         2.61663542812626    0.93081635415290    0.59498098941794
C         3.87865874240582    1.59398159191154    2.79015714128004
N         3.81843516256447    1.83553205297349    4.14317443865554
N         4.98638493618240    1.26655847803447    2.21579043316388
C         6.29698659601385    1.15320799524269    2.87301925994989
C         7.43764061790208    0.99910044254138    1.85367836841766
N         7.65268531550157    2.11869327870957    0.93424407281476
H         3.24480133904097   -2.54726239496731    0.28052650224641
H         4.41256140596000   -1.14241841631323    0.70935880515427
H         3.59939107701093   -1.16741214108648   -0.82992718705890
H         2.48849241758244   -0.66117532334604    1.94080597160636
H         0.83163690216992   -2.01860412409513    0.26379799447483
H         0.79337333864955   -0.55453323630746   -0.66100106156639
H        -0.41337328321458   -1.86952639049736    2.39068320978820
H        -1.22964528830824   -0.43066346587269    2.59727254657693
H         0.56948547327124   -2.10313288316014    4.49042189319283
H         1.08223723569895    2.80803670368350    3.06636547688594
H         0.51288278321089    1.68395123175683    1.92338128920926
H         2.80301089462957    2.80343962058478    1.36452724530086
H         3.60162869600553    1.03146966676571    0.11887334786743
H         1.86182347925152    1.22799945204787   -0.14780773041789
H         2.86399897474224    1.99355796442180    4.46450926562163
H         4.36723655358738    1.27779373986528    4.78598434240469
H         6.45028196831387    0.31761448604622    3.56650329152999
H         6.36475677928305    2.10909688058775    3.40661179381497
H         7.22060459430642    0.17510102506972    1.16481925870636
H         8.40206162232871    0.80201535291901    2.33279433939119
H         8.26769320048239    2.79196261736751    1.39776168151035
H         6.76198015914014    2.45033891982953    0.57220438939450
