39
 energy: -54.514556971713 gnorm: 0.115954408791 xtb: 6.4.1 (79825abcba525fcdf90b791dcacef51065a7a4e7)
C         3.59340585860764   -1.39179038693859    0.15871965201459
C         2.57353958733454   -0.58405585254688    0.96802670032099
C         1.11841588193691   -0.96370475182859    0.65372323341409
O         0.07291346905387   -0.12563420149545    1.13661139760001
C        -0.34637779660222   -0.48904788457006    2.43644255028849
C         0.82722640151421   -0.23927903848224    3.36496467936936
N         1.39617957893408   -1.18527952663339    4.03983400521644
O         1.25311736212997    1.01790822581793    3.51289875282000
C         1.35740456114410    1.92893864574354    2.40220253974067
C         2.69448063283288    2.00379505588576    1.64459367024505
C         2.76236314333980    0.89632706381966    0.56375744619024
C         3.96734046266163    1.96041801209285    2.53266962898139
N         3.84770096973162    1.56282585141325    3.84424727984852
N         5.06837163048224    2.29738012394568    1.95099359675321
C         6.34628884451422    2.17739488857816    2.66863263814155
C         7.17403916050984    1.08096375249731    1.97829597001049
N         6.54001740824778   -0.19675860436451    2.31076212419339
H         3.40196454140702   -2.45514263464407    0.33423652870635
H         4.61847230766096   -1.18288515590145    0.48365076440329
H         3.40643540910953   -1.25799340413225   -0.90480150818946
H         2.92729676075663   -0.76433791446157    1.99644867467239
H         0.94429479378640   -1.99406996012707    0.95549723513363
H         0.98545516973355   -1.04953942764835   -0.43217012828105
H        -0.74685549410150   -1.50987836084943    2.45046199345495
H        -1.16937887229364    0.17187298289493    2.70990975980513
H         0.86054608683188   -2.06662486111411    4.03722087696573
H         1.16595359579547    2.88833771212571    2.90423466021698
H         0.52151038404085    1.82270676593704    1.70878021135481
H         2.72664968312147    2.94348670328603    1.06449836458271
H         3.81506109126701    1.03693029763867    0.28254754599600
H         2.00614659843742    0.93439146674760   -0.23404046663888
H         3.03205012720676    1.16348168566261    4.30729649255002
H         4.59868823579751    0.92237142861103    4.07073296980215
H         6.30960828222937    2.02266981069415    3.75369057710830
H         6.99545283285011    3.04155919000643    2.48196850899353
H         8.20516166130126    1.28648703398710    2.28676494016355
H         7.09001381280063    1.18323623805127    0.89156574303929
H         6.58001687156184   -0.28701752335300    3.32891154468141
H         7.11769816018445   -0.98135382661789    2.01902161917999
