39
 energy: -54.526144346131 gnorm: 0.114205234097 xtb: 6.4.1 (79825abcba525fcdf90b791dcacef51065a7a4e7)
C         3.45626898332786   -1.64140691849959    0.47243421240790
C         2.49644885482018   -0.62474915709756    1.09908602197798
C         1.07467047228371   -0.97416042192102    0.63350794952589
O         0.06104626436406   -0.03290642822446    0.97295662335511
C        -0.44823428857754   -0.38732644999726    2.24278159364759
C         0.58773772963433   -0.37767206719757    3.35118287359795
N         0.85215985195623   -1.31261065613220    4.20560901089957
O         1.41558596737125    0.66455382245982    3.46172657813338
C         1.40617623311083    1.81636168501502    2.59700208710149
C         2.78441307829042    1.87570680177713    1.91561493244745
C         2.84276190685863    0.84390055776163    0.76180749290570
C         4.01546407238057    1.62669548574605    2.82843442017169
N         4.05492905293538    0.62746297045865    3.77321267009181
N         5.06619957532938    2.26755245090889    2.44188902172271
C         6.38789604671584    1.98643880124039    3.02203400820857
C         7.18049810137414    1.11383204508129    2.03500008554358
N         7.29882087162625    1.63588393625821    0.67171240946849
H         3.42846375557632   -2.57887886011316    1.03683405142031
H         4.45482957846008   -1.20146935439872    0.56894599546491
H         3.22227251397732   -1.66400313394153   -0.58995550029200
H         2.63723257283235   -0.78792011843944    2.18022093168659
H         0.82486159465736   -2.00145953750475    0.88902743932406
H         1.11690433051656   -0.93106848681638   -0.46219726640106
H        -0.90329903550370   -1.38409032648950    2.28807665245154
H        -1.21262912562050    0.34377692649507    2.50758314572605
H         0.18765908723648   -2.10121191641584    4.19056076719351
H         1.14515289677615    2.70866931556142    3.18419046402525
H         0.58625291095065    1.57527342337255    1.91844404900449
H         2.92184352915287    2.91345229402633    1.56239692392344
H         3.80329417987593    0.98192715551345    0.24668843977454
H         2.11284362256874    1.17259926921850    0.00750627705887
H         3.17087656277431    0.29317050547102    4.15515032544184
H         4.91998813677401    0.52530543419082    4.28963896137227
H         6.38124151347081    1.50042754178774    4.00508274339467
H         6.81808561250718    2.99535316429360    3.03016224719635
H         6.67417183321462    0.14249667057189    2.06234666440455
H         8.18523374032795    1.09190118407207    2.46919801171902
H         7.19403193801984    2.65342697403682    0.67114972610194
H         6.50324330979054    1.44184433010628    0.06853564477914
