39
 energy: -54.520596497433 gnorm: 0.106227074915 xtb: 6.4.1 (79825abcba525fcdf90b791dcacef51065a7a4e7)
C         3.15308540206430   -1.64004328013745    0.27303834959338
C         2.25453971974115   -0.65240926832566    1.02452680046827
C         0.82412738732619   -0.92475375852526    0.53457376765273
O        -0.19920560682149   -0.03835458130086    0.97695888054007
C        -0.59811682901079   -0.21897615654219    2.32071531031455
C         0.46986290197431   -0.21368522825974    3.39834041876186
N         0.57815422876650   -1.08712357118318    4.34673467609647
O         1.40953967971923    0.73284902616410    3.46811028631119
C         1.54121402956743    1.92032868061322    2.66371471756618
C         2.79137705626992    1.84278190618829    1.77016787626931
C         2.72640152979864    0.77223795574988    0.65257487050194
C         4.21078907891215    1.77138590360275    2.39539159334939
N         4.47708367831815    0.77004086566008    3.30039123494219
N         5.12235704941380    2.52251171925713    1.87672607428119
C         6.50488169048889    2.46534641023648    2.37455373811184
C         7.42344742403593    1.29349341748895    1.99128611378381
N         7.31010360526276    0.17628171133454    2.93154295130168
H         3.12746010610972   -2.64688807758217    0.70173503560735
H         4.17633287373796   -1.28759880106912    0.44253864069101
H         2.87412401813757   -1.78102801880652   -0.76919036132777
H         2.36464249690286   -0.77568385193024    2.11447095624636
H         0.52213895954412   -1.96490982696817    0.63415538079911
H         0.75953608402115   -0.67070402002050   -0.53102335395965
H        -1.12991297531388   -1.15753874670700    2.51811567586596
H        -1.36745099204259    0.49198486465558    2.62335508233403
H        -0.09257486270695   -1.86990590668846    4.31426996229589
H         1.73994053535891    2.75141082004679    3.35577434744757
H         0.61157805643906    2.17453485861233    2.15186027813049
H         2.81118734658937    2.78782551775193    1.19827109933727
H         3.69890638796843    0.77942999787289    0.14149385819018
H         1.91633635373023    1.01153721333319   -0.05192789229585
H         3.77043685604905    0.04376114673894    3.41149782364180
H         5.45630674733798    0.56033173738152    3.15004571858643
H         6.57618705398520    2.62444116453571    3.45725427065571
H         6.88691348425443    3.34458911881737    1.84161726150811
H         8.48026029428634    1.55756840736505    1.87289064999650
H         7.12271668005363    0.96961551121928    0.98970405391267
H         7.63708637581872    0.50309182209276    3.84404078130538
H         7.98940306969032   -0.55566340686195    2.73860302252483
