39
 energy: -54.525914501018 gnorm: 0.111456768230 xtb: 6.4.1 (79825abcba525fcdf90b791dcacef51065a7a4e7)
C         3.61017081051720   -1.63360678989407    0.58853737814088
C         2.54784643891950   -0.64346935849365    1.07704016396212
C         1.15733586937869   -1.14324997011518    0.65632097267904
O         0.02709925048849   -0.34691162227114    0.99841588103894
C        -0.43635918290058   -0.52978977176787    2.32098819324555
C         0.44111931936613   -0.10154615265803    3.48224761703399
N         0.23288284893230   -0.55807102602496    4.67484806561510
O         1.36347607582954    0.86041088258106    3.39458889342284
C         1.45205806288010    1.84763628727255    2.34958289147165
C         2.82997671885376    1.85558955178285    1.66502169675572
C         2.78301489370046    0.78845583200712    0.54327281540789
C         4.03831248336397    1.62483830649427    2.61233957927101
N         3.86239802038049    2.19081577194184    3.85385183537243
N         5.09907559024740    1.11020248080261    2.08880190749593
C         6.30574242217901    0.89534959654739    2.90137070329002
C         7.43737567036769    1.67720749523484    2.21434744884184
N         7.67500250223189    1.15980832780693    0.86493152507910
H         3.38613603700891   -2.57860082278360    1.09348158347436
H         4.61840562913253   -1.25452275419451    0.78788805028495
H         3.45877763358921   -1.69573224650765   -0.48717511705146
H         2.65967534904994   -0.66056694232099    2.17362553661978
H         1.09261575517703   -2.21333005805901    0.84010907686252
H         1.11832938166367   -1.03681970745968   -0.43517416081586
H        -0.72524802466103   -1.56086664735647    2.55783728024455
H        -1.40263722269184   -0.03012595297561    2.24632712652059
H        -0.46314592129383   -1.31614231090544    4.60738296765540
H         1.21916240053510    2.77133419667721    2.89883517151089
H         0.69446453709041    1.79440703858210    1.56596467691300
H         3.08678511695320    2.75240908117060    1.07313490346397
H         3.68996863940416    0.88510448308222   -0.06919365444555
H         1.99820070340592    1.18441401460754   -0.11784569003785
H         2.87915941341134    2.09031164402164    4.10348639198230
H         4.52613823709640    1.88662904462926    4.55554896859518
H         6.58507724994534   -0.16475997918014    2.87351771988414
H         6.12968982755698    1.23861363894139    3.92811925987033
H         8.35225434230461    1.61935566019055    2.81456134025361
H         7.20855464396586    2.74466566100952    2.13263755354751
H         6.72825097999854    0.97531660046399    0.52434492874988
H         7.93795291494333    0.19650337700098    1.05810991070139
