39
 energy: -54.524532990836 gnorm: 0.103200566069 xtb: 6.4.1 (79825abcba525fcdf90b791dcacef51065a7a4e7)
C         2.79244598221081   -2.65964481886969    0.52958216667365
C         2.23411007149164   -1.35052912185711    1.09704782358660
C         0.70831753361748   -1.50492828098685    1.00527112826636
O        -0.12455371912207   -0.36473701222728    1.19210754793122
C        -0.43116926913515    0.09863416783026    2.49161119093939
C         0.62019083683193    0.67282067823019    3.42265167255979
N         0.72503598311687    0.36919374209433    4.67600374469739
O         1.40416581758510    1.70950632224997    3.11531878033136
C         1.89985173716805    1.98225198617048    1.79077977182928
C         3.07754020474032    1.17547515626516    1.21675179724374
C         2.74599062507543   -0.08233311643185    0.37574435018322
C         4.18240598587547    0.96676041528814    2.28747229735732
N         3.88221156849978    0.12786996206991    3.33569707996692
N         5.32150874157372    1.52339610100042    2.04922508333023
C         6.44797044816892    1.34646433883627    2.97780132474262
C         7.40242861752257    2.54524567105132    2.85198615877774
N         7.77764872629754    2.92629138765565    1.48849586677866
H         2.25641489693589   -3.48178518079224    1.01427779491402
H         3.87072437198615   -2.77203351492276    0.68664056188877
H         2.63792623809253   -2.69033781722989   -0.54704145572532
H         2.61036968382277   -1.47461471224413    2.12579899603081
H         0.56930965760848   -2.37697510127010    1.64029026983372
H         0.42042813566312   -1.79327753630672   -0.01364247525987
H        -1.03483167986684   -0.58662137308624    3.09880994127885
H        -1.06330506448277    0.96605694386233    2.29948222684974
H        -0.03348584007094   -0.28226726708825    4.92883345391436
H         2.27500983332444    3.01189230232598    1.88151848788242
H         1.08818822580065    1.91075771669873    1.06488051416335
H         3.56158584538736    1.90918530770788    0.54747230246502
H         3.70566266519134   -0.42553597025573   -0.03445390927695
H         2.00820779770318    0.32559447559910   -0.33070129290223
H         2.92694059872793    0.02309184233712    3.67577877623728
H         4.50971500845638    0.21948537559640    4.12519410643068
H         6.92693457475171    0.38522349955191    2.75588813359103
H         6.08780733420584    1.36101162156546    4.01371069793203
H         8.28157544011776    2.32176644585713    3.46661160236040
H         6.94218789208899    3.36823017638025    3.40820327885166
H         6.86904919053393    2.90389660568375    1.01911304936632
H         8.33576327703660    2.16964047910069    1.10067530680920
