39
 energy: -54.525030142306 gnorm: 0.112562122962 xtb: 6.4.1 (79825abcba525fcdf90b791dcacef51065a7a4e7)
C         3.50865301885652   -1.67063226119694    0.35863785185444
C         2.57760558982317   -0.71786652691047    1.11555814141588
C         1.14664110508369   -1.17472156859545    0.79317783102185
O         0.00827502968411   -0.37403517251273    1.09590292623952
C        -0.51165571428968   -0.45056124617114    2.40786765584303
C         0.44134369248749   -0.22872699762024    3.56737888269218
N         0.41322433974424   -0.96867891773027    4.62839428586356
O         1.21229282544143    0.85635626517902    3.67701069269174
C         1.45260249991400    1.81200471169909    2.62654146176570
C         2.73877682748057    1.68196029787922    1.79216077764743
C         2.72740418139058    0.72319616153422    0.57563198213748
C         4.03241456848359    1.47314375745278    2.62500510107116
N         3.80957795950934    1.22196053431681    3.95912649699351
N         5.15000042329073    1.59734967249485    1.99275922989645
C         6.40540186928277    1.13692836832307    2.60468576861823
C         7.53042291990544    1.34125754411819    1.57683667455777
N         7.65997819822019    2.73607889419965    1.14930822336052
H         3.37640673151541   -2.72694730514915    0.61336005312645
H         4.55022137787425   -1.38528494693118    0.54220013541600
H         3.31584412983871   -1.57019400501093   -0.70751116592012
H         2.89109915188636   -0.82298730213343    2.16720871253405
H         1.05826643707170   -2.09996646584685    1.35811142175603
H         1.14891602702954   -1.53341685868347   -0.24390608347883
H        -0.92420513493701   -1.46329931765087    2.49056200792730
H        -1.17521752721474    0.40893234061517    2.30842941111083
H        -0.08661959504398   -1.85913266439741    4.48372975134805
H         1.44657415170301    2.80385192801912    3.10124035523831
H         0.66155079842101    1.84505844012721    1.87555313439965
H         2.89097532486654    2.69970019873168    1.39015714862346
H         3.66860906069705    0.84206909291346    0.02153466690087
H         1.88949285680914    0.84613769267535   -0.12621120264260
H         2.87375172720216    0.89508740129298    4.19694965965337
H         4.58460504649052    0.76855114954341    4.42732778698412
H         6.20887471158611    0.06360736865552    2.71420818462506
H         6.64943326955123    1.68176622742600    3.52481494476392
H         7.30192832252735    0.76765754174337    0.67164067793156
H         8.48704874030474    1.02578208458977    2.00560791896906
H         7.64911981808795    3.38684868153835    1.93845691075755
H         6.77090889467772    2.91970422075158    0.69077278381783
