39
 energy: -54.535729462367 gnorm: 0.098275855356 xtb: 6.4.1 (79825abcba525fcdf90b791dcacef51065a7a4e7)
C         3.53037033655327   -1.18043937427604    0.00254781012742
C         2.47987437154542   -0.45573451479798    0.85036930339835
C         1.09113356135935   -0.96099336006259    0.43034856680107
O         0.01296974399502   -0.38734403181697    1.16322492338730
C        -0.16731782329485   -0.79135112096338    2.50550296965475
C         0.85814185160257   -0.38426099740954    3.54694174370484
N         1.51286883776670   -1.18771706954009    4.32145072731876
O         1.13497974046240    0.91340526831610    3.69929157023332
C         1.19793333379617    1.80320230357917    2.56845275995086
C         2.58660310275867    1.91012042197980    1.91460882068869
C         2.65877046261295    1.06267354098708    0.62003321589383
C         3.87535563607689    1.77329942457512    2.76966995377156
N         3.74593632259289    1.94677977410608    4.12826638883329
N         4.94239516904918    1.41981933488265    2.13670979384574
C         6.15790847926075    1.24514148663742    2.94571517497770
C         7.30326948410459    0.65811445303429    2.10461829105181
N         7.55082495371924    1.45625570288302    0.90179719804203
H         3.39594819236812   -2.26492864027473   -0.06060021471193
H         4.51790496380348   -1.11751836189254    0.47244051701679
H         3.57995577138568   -0.76677669580368   -1.00261949590218
H         2.67924656229228   -0.80017721230359    1.87842935809801
H         1.09445742085447   -2.03408094215743    0.60785957735034
H         0.81725945475982   -0.72925369902389   -0.60671470888078
H        -0.26697031010288   -1.88128840342897    2.57463975361038
H        -1.07709603743915   -0.22585344931762    2.70908947775763
H         1.20226762699165   -2.16576932555535    4.21839570248557
H         0.86715101023172    2.77888976176643    2.95283971550956
H         0.46076772549835    1.55430423608441    1.80328909578995
H         2.55925993072480    2.94427820731824    1.52687716281297
H         3.60823917671154    1.33963077426772    0.14167655789410
H         1.84855730155187    1.38076730303952   -0.05239883838674
H         2.77355964247293    1.93842504682241    4.43419192237247
H         4.39134313855795    1.63714324893857    4.84453083547463
H         6.03487911180212    0.56680977002288    3.79857266996148
H         6.51140962474723    2.21561206205322    3.31485081974544
H         6.93613182275026   -0.27139519564636    1.65536525838080
H         8.26379214504985    0.58338629413605    2.62453600165867
H         7.48331326062312    2.44397100305995    1.15915983897388
H         6.76209395083622    1.26110062151329    0.29004959008306
