39
 energy: -54.522779020555 gnorm: 0.115388295395 xtb: 6.4.1 (79825abcba525fcdf90b791dcacef51065a7a4e7)
C         3.84434922949931   -1.38355826355785    0.54264018067066
C         2.60916379963876   -0.63630912564840    1.05593917195860
C         1.29519867338425   -1.15705389769008    0.45375524809395
O         0.21573119263277   -0.32109859211697    0.85939942261554
C        -0.33632161322156   -0.40994885880704    2.15738978829820
C         0.48877737905600   -0.26564203646194    3.42240827773696
N         0.52866392188027   -1.09589950782649    4.41394991864995
O         1.22462809183308    0.79833499093367    3.75446852642566
C         1.48823670099090    1.86321128228745    2.82116937808326
C         2.80442053467422    1.79724087263454    2.02703141019548
C         2.72290835342025    0.88092457018341    0.78082897095960
C         4.08574629495783    1.44282955364818    2.82910966526560
N         4.02818012534086    0.42408586970397    3.75186450155533
N         5.02588643385605    2.29403021061443    2.59298672528553
C         6.46164297124391    2.10741113619364    2.85037965825607
C         7.09766820861584    1.13893019971087    1.83972981914648
N         6.72937978239670    1.35382133157010    0.43855988768576
H         3.62164916410214   -2.44370292661783    0.69971318089941
H         4.71135388519029   -1.10151619037597    1.14987822532498
H         4.15913728766058   -1.19017533257209   -0.48080906280797
H         2.50325802557604   -0.93362767321247    2.11219821229546
H         1.03850682752012   -2.20062544136726    0.62140335263803
H         1.27481811483449   -0.91049511107524   -0.61535837119302
H        -0.90349701384955   -1.31851418471526    2.39296333584914
H        -1.16034805467364    0.30391549075149    2.17498468865116
H        -0.08762403282226   -1.91633765944463    4.31026743799780
H         1.57494940271019    2.74995696681884    3.46560656291099
H         0.63408139252891    2.01372644401053    2.15889850905701
H         3.08888001532698    2.78518349595753    1.62253420902833
H         3.62123370666951    1.15000397316400    0.20844005604560
H         1.79157573350241    1.09389640039733    0.23580014499636
H         3.16990398116513    0.04245777615755    4.14796888857277
H         4.83260827691316    0.59085251302637    4.34393185033741
H         6.80635799016388    1.75854321928685    3.83124599387307
H         6.83023421434300    3.13284821995619    2.72525332121765
H         6.72663313426396    0.15846007986686    2.15850536939110
H         8.17924036883216    1.22648785456820    1.98477402949613
H         7.18199097894338    2.17764413307379    0.03503297792644
H         5.74914830549017    1.62487676960480    0.44817429783494
