39
 energy: -54.522612245017 gnorm: 0.115287323092 xtb: 6.4.1 (79825abcba525fcdf90b791dcacef51065a7a4e7)
C         3.28627190581118   -2.25638594992739    0.86001702795047
C         2.34484215555701   -1.11313458204548    1.25273385332844
C         0.87917554427785   -1.33238520409935    0.84769620755482
O         0.07103694801780   -0.16066756529316    0.79662464075019
C        -0.58346467559667    0.21363439895294    1.99201635730358
C         0.27492510166914    0.09083909339620    3.23699544929969
N        -0.04966926555664   -0.77824894155417    4.13888110716279
O         1.30187007021113    0.90494576782360    3.49468087289442
C         1.78169039005880    1.91335577369493    2.58507652955725
C         2.97924561178663    1.40318226750586    1.76475244869515
C         2.73910380819630    0.28416129825635    0.72099755051148
C         4.24299619763429    1.30014320567048    2.66088303387567
N         4.17979355079497    1.76584076937024    3.95384871575006
N         5.26545533416253    0.86244751577512    2.00730833549988
C         6.63259896082503    0.74749682469416    2.53662797753836
C         7.45001555654625    2.02788836945054    2.29930094345301
N         7.57414692582918    2.67000418763865    0.98881614160805
H         2.83337142488475   -3.17907729318419    1.23644204118176
H         4.25560328386012   -2.08523143713589    1.34073072444388
H         3.36374062397593   -2.25928185437691   -0.22530644854571
H         2.35115743533462   -0.96040876594687    2.34449044678972
H         0.31052518845004   -1.95967394133982    1.53047272570173
H         0.73535984080023   -1.76935940537823   -0.14858744788231
H        -1.38832455546669   -0.52114225265479    2.11439953588231
H        -0.93977037278573    1.21424436597154    1.74552615365251
H        -0.85903709914229   -1.29401206041013    3.76126783418060
H         2.06574253296065    2.75826705199264    3.22895198579062
H         0.99189251197771    2.14056353497966    1.86713867142987
H         3.36590939855415    2.29539906064971    1.24034217512857
H         3.67775829803400    0.15252631376512    0.16546068223831
H         1.97444752143720    0.67014807659538    0.03099114874530
H         3.36520298862334    1.70766221755953    4.56395862465559
H         4.98279286114797    1.55501740894669    4.53368069052081
H         7.06793271265831   -0.13753849817613    2.05721891831326
H         6.64111720028918    0.57661942968000    3.62003264332659
H         8.46711347642635    1.89436022965091    2.68438351589551
H         7.03231467620919    2.86428138493352    2.86892819086752
H         6.68154641963732    2.96676060950759    0.58685242202925
H         7.93933956125923    1.99235412934739    0.32410419484421
