39
 energy: -54.515916069855 gnorm: 0.119386028448 xtb: 6.4.1 (79825abcba525fcdf90b791dcacef51065a7a4e7)
C         3.25428109827750   -2.02734321549909    0.96420269743753
C         2.30981305037038   -0.85337872995297    1.24228120649642
C         0.96646345107869   -1.07997721980642    0.53209114847997
O         0.03533478258897   -0.04682878131044    0.83904753976607
C        -0.57137774172539   -0.19866560904453    2.10643902612734
C         0.36399038544582    0.00334814932846    3.28379264205800
N         0.22531880446209   -0.73836786226919    4.33484012135627
O         1.01802382503884    1.14308736381460    3.52258585454430
C         1.48213261433114    1.97575964370534    2.44288301692271
C         2.88540194991606    1.69506215138867    1.87773599878618
C         2.89837122038402    0.52507985780281    0.86271209606446
C         4.09333621135713    1.53846040108373    2.84059802232391
N         3.92465009997560    0.95190630137960    4.07353285138093
N         5.18322570717368    1.74266367025002    2.18135453016441
C         6.51064069491740    1.47827225304513    2.75628171682377
C         7.50284122277484    2.13040374445235    1.77947100751245
N         8.11236250430511    1.29790715727197    0.73998797145982
H         2.81169929403573   -2.99989455045929    0.72663335294506
H         3.92673828806949   -2.17860076236889    1.81561641965968
H         3.78900267908357   -1.82294257155512    0.03887570512502
H         2.09438918755418   -0.99245169607334    2.31445133068684
H         0.43095567731971   -2.00250295417093    0.74473134356277
H         1.17364153599101   -1.11299885027067   -0.54503342417814
H        -1.04619071767636   -1.18339135373097    2.19328163524135
H        -1.43777535631325    0.46258510486677    2.07428094850752
H        -0.36481713803249   -1.57598289998019    4.21728042209611
H         1.45249121957533    3.02549549090164    2.76893871563462
H         0.77807946462531    1.81294010213421    1.62518027625143
H         3.03703486862683    2.59026688831939    1.24830631831040
H         3.90766912441188    0.35645145575927    0.46283282956173
H         2.26244342314106    0.81225895457144    0.01246632603757
H         3.01573093720687    0.84652301895584    4.52290678952745
H         4.64435502860469    0.75209539955807    4.75731636522213
H         6.55875576530264    0.38311758444116    2.72534240829511
H         6.77286586580104    1.90150271692442    3.73360011135002
H         8.34682439772645    2.58973396793811    2.30607776776921
H         7.05243739642914    2.92627846935097    1.17762192302660
H         7.44458008093659    0.56710951784030    0.48235195616843
H         8.87217556823523    0.76010807459152    1.14971164686350
