39
 energy: -54.521945062131 gnorm: 0.113193016259 xtb: 6.4.1 (79825abcba525fcdf90b791dcacef51065a7a4e7)
C         2.62163506867289   -2.52161971576841    1.00196593909467
C         1.95559373969602   -1.15001475125706    1.15239502744623
C         0.49477438618593   -1.06450657216646    0.68442060112164
O        -0.13649598414733    0.18251160658788    0.95839482807029
C        -0.59162232094567    0.35388115357032    2.28539451383151
C         0.44995274778761    0.30041353111997    3.38727798601215
N         0.19860125249482   -0.25475479094869    4.52862972256422
O         1.63911401528212    0.86952666149085    3.17328472733513
C         2.08939656474364    1.82708058504063    2.19612843120394
C         3.22309082851337    1.15883299981698    1.39892734724825
C         2.92068505352740   -0.10205208944534    0.55156685654264
C         4.35464340846830    0.88980821189372    2.42749285627202
N         4.54076883717060   -0.33173815201205    3.03231583754888
N         5.25579997712398    1.81203673328541    2.38785105245988
C         6.53306340280232    1.64457506113906    3.09709668750767
C         7.43568356371050    2.80745009821259    2.65336814688155
N         7.62228639528214    2.89342837957276    1.20323751195170
H         2.21988902618968   -3.39378595781855    1.52741822210130
H         3.64014059305747   -2.34529287257881    1.36464786992344
H         2.63197230460861   -2.80569222177953   -0.04833534265888
H         1.98483643935600   -1.08258301327697    2.25234744426822
H        -0.12975417885745   -1.81770521323499    1.15949325581221
H         0.55535011692034   -1.26897606414232   -0.39202416159228
H        -1.34690637280242   -0.40682824578456    2.51678378875346
H        -1.17135239229070    1.27710438883653    2.26295867396119
H        -0.75261844887600   -0.65059658733727    4.48204629317343
H         2.51591238094793    2.68571427145671    2.73461587887453
H         1.21305223862808    2.08665914382032    1.59990833566582
H         3.56283648175302    1.94283052471435    0.69857989393928
H         3.87489786770281   -0.54459357849176    0.23430332670305
H         2.46033713779006    0.22571905633003   -0.39206427964972
H         3.73780262140165   -0.93436663687872    3.20912304833339
H         5.29945389408149   -0.37244085845129    3.70179307341920
H         7.01743658485341    0.68397136840166    2.88435457317738
H         6.40844642760872    1.54574087386870    4.18233386166226
H         8.41671767086243    2.61163051065521    3.10039533026488
H         7.08002259465547    3.79744632223663    2.95654343116456
H         6.70610935280454    3.00422752970764    0.76196883434006
H         7.82715169819409    1.96024213855847    0.85450999302903
