39
 energy: -54.528112840052 gnorm: 0.122839722435 xtb: 6.4.1 (79825abcba525fcdf90b791dcacef51065a7a4e7)
C         3.31799039858189   -1.48791050926446   -0.07504480684485
C         2.46987052484844   -0.62322788122565    0.86333507376285
C         1.02703169968043   -1.00738271360425    0.50147029866670
O         0.05900330100249   -0.19508952969625    1.15852380397705
C        -0.36300687149214   -0.47184714529833    2.47865573392823
C         0.73513740162387   -0.45294255891433    3.52536791481956
N         0.92069922265923   -1.12504482195459    4.61528470122724
O         1.45191906154086    0.67176133376377    3.59644972135272
C         1.40523589568162    1.72831049014907    2.61868549133501
C         2.71068316281065    1.86973511832231    1.81671691757532
C         2.82416727755759    0.86555263825801    0.64281776765541
C         3.99264489696149    1.63526254205639    2.66071296140880
N         4.03913799187446    0.65329252041275    3.62310701046729
N         4.95215760626989    2.42182064324212    2.30741168322253
C         6.30073037007585    2.34247377297794    2.88838518940322
C         6.98378080449518    1.05641457155263    2.39503910517579
N         7.56868318432802    1.16883072725799    1.05700190282238
H         2.91353341013097   -2.50439242159313   -0.03826143658383
H         4.39196397025292   -1.50550046817563    0.14002309412149
H         3.20669820373361   -1.20588929607109   -1.12003998247780
H         2.64395252902274   -0.94858148732582    1.90215074067331
H         0.77681229278389   -2.04600948943916    0.70563400982859
H         0.82749120266123   -0.79716392902998   -0.55692574281044
H        -0.66657330191464   -1.52366785051567    2.54342006812073
H        -1.14781896486718    0.17990582741326    2.86364860505631
H         0.40770751485203   -2.01905354104247    4.65088780492717
H         1.31197503603315    2.58874386497268    3.29698712563718
H         0.57018688349569    1.66307852016716    1.91920229373049
H         2.81093597265074    2.87283209878954    1.36470849873891
H         3.86458113611625    1.01643538685436    0.32376505708123
H         2.20210389640886    1.22904830404452   -0.18826701410248
H         3.21572199195074    0.36433961913902    4.15005002183752
H         4.94396430039915    0.71406881214599    4.07372336349293
H         6.29479522540201    2.42433960870476    3.98195676878891
H         6.76739850147132    3.24901206977732    2.48410003175973
H         6.26429695156807    0.23914380179508    2.27249112878776
H         7.80357703612248    0.72928693116254    3.04266874236308
H         8.20046725632949    1.96640083635096    0.95161842304992
H         6.84181514299179    1.38007268890007    0.37769569864292
