39
 energy: -54.529593025176 gnorm: 0.109635541622 xtb: 6.4.1 (79825abcba525fcdf90b791dcacef51065a7a4e7)
C         3.69788312179157   -1.44501978657677    0.49512519786686
C         2.59531750497665   -0.51458953438471    1.01106006216721
C         1.25448436395111   -1.09673523169296    0.53821989423035
O         0.10557582508452   -0.36320032138550    0.95120200098008
C        -0.40491621244760   -0.58948178314580    2.24952024371147
C         0.55744929399712   -0.41990674194067    3.41011558809382
N         0.63559804880471   -1.24366848018210    4.40479272973382
O         1.16073841455368    0.74350769712697    3.66759664024112
C         1.31333948524447    1.77384620637027    2.67280330011624
C         2.67603989492795    1.82431033333786    1.96016872264672
C         2.75762107899583    0.98293309872307    0.66219754468555
C         3.96644023244769    1.60225887734793    2.79461027710548
N         3.76133776210935    1.40421479015299    4.14047079987737
N         5.06258208019946    1.63353156636978    2.11515819134254
C         6.36644470123970    1.79002526101068    2.77691844389144
C         7.39545333736143    1.04819093992417    1.90817245179598
N         7.38817325770647    1.58832269246134    0.54681414647102
H         3.53511105893920   -2.50658550939537    0.70668469824153
H         4.66918465265383   -1.15198415854162    0.90826718677872
H         3.88297055461359   -1.37427777850904   -0.57476967862751
H         2.55205681000697   -0.65261109269252    2.10393520618217
H         1.15649072615272   -2.14544233281760    0.80960306078523
H         1.30311653720068   -1.03647933162110   -0.55641003080429
H        -0.74041037950124   -1.62552781613595    2.37884956641670
H        -1.27296129191434    0.06675166268848    2.31870749487491
H         0.06618130045241   -2.08466925140193    4.22545524080978
H         1.00243450173370    2.64326598217748    3.26994953061085
H         0.55583932752623    1.62311507029273    1.90188667286520
H         2.73728950972744    2.88703781577817    1.66449223099090
H         3.78500004876475    1.23326752395175    0.36412646231112
H         1.98840805215910    1.19811121556926   -0.09397939295465
H         2.92001904289342    1.11774348532963    4.63976392109009
H         4.59518833450304    1.33898376042373    4.71134524173673
H         6.38567107008648    1.30101251284811    3.75831180162561
H         6.49651199259482    2.87878744385687    2.80369022056174
H         7.13982344064676   -0.01719395308786    1.89351228408068
H         8.38527070120944    1.07332688999572    2.37521878203550
H         7.74705624938525    2.52487616803483    0.74792470782238
H         6.43430095568525    1.73484643751202    0.22576016417013
