39
 energy: -54.528545676059 gnorm: 0.096258626679 xtb: 6.4.1 (79825abcba525fcdf90b791dcacef51065a7a4e7)
C         3.46542250715763   -1.88736869077971    0.97868780381105
C         2.38687457646885   -0.83700922458102    1.26332711686946
C         1.00753040990309   -1.19318702876262    0.68812976204382
O         0.04475363289931   -0.16593952637885    0.90363374395679
C        -0.76423890242861   -0.17817268711813    2.06243360256775
C         0.02386453998450    0.10677507595286    3.32717956681735
N        -0.29668269855991   -0.48554188177333    4.43193444160777
O         1.15991325764491    0.80856360225970    3.35313299691030
C         1.55914340415181    1.87129261490132    2.46672414134642
C         2.94602412175851    1.61480504495015    1.85180699340101
C         2.87742190515042    0.53426212636876    0.74409716209037
C         4.16968271300583    1.31399074192027    2.75894700911150
N         4.04551218331449    0.50858788640487    3.86734087489090
N         5.26608178260432    1.74322221499745    2.23185166324571
C         6.59932868792124    1.63564872825819    2.84287970585636
C         7.70968574788044    2.18559077011306    1.93262289129926
N         7.89295549947583    1.54076814394191    0.63042946609140
H         3.08203956235659   -2.90984825532627    1.05436481909407
H         4.31986223583698   -1.75838236810254    1.65194713549877
H         3.89813277299683   -1.78865507078230   -0.01476792515983
H         2.24621257062364   -0.91594936607775    2.35386834512858
H         0.76917133771040   -2.15102472377960    1.14504339384296
H         1.05811469526701   -1.35896562084491   -0.39546113015212
H        -1.26180991902445   -1.15506266539763    2.09041289539684
H        -1.47581524436041    0.64090562973871    1.95426107624274
H        -1.19560445013128   -0.98995623363918    4.39750320575587
H         1.61040192927080    2.77779262596694    3.08701969867142
H         0.87948632947766    2.02281676673975    1.62651850753376
H         3.10905290079404    2.59720552824801    1.37339638063380
H         3.83498005904922    0.35495921789428    0.23620536056189
H         2.17716299811162    0.81600275622166   -0.05593630606317
H         3.12141544012942    0.42572084453626    4.28966171437577
H         4.91362500682647    0.28500731678827    4.33835186147297
H         6.82987262674822    0.66390395258288    3.29586714424105
H         6.66188317762371    2.39688668917094    3.63005250774797
H         8.66794660354707    2.06652105821862    2.45046945846033
H         7.58108598104407    3.24171417042357    1.67461521038078
H         7.17159901731640    1.81621966044493   -0.04049985750637
H         7.94657644270137    0.53026280186800    0.73251267877055
