39
 energy: -54.531284082187 gnorm: 0.104575685896 xtb: 6.4.1 (79825abcba525fcdf90b791dcacef51065a7a4e7)
C         3.33509309004673   -1.93780971177108    0.73330686675546
C         2.35742576846938   -0.80610844509785    1.06641197678470
C         0.91052199372045   -1.07704359651391    0.62667507822847
O        -0.08017202223714   -0.13214220083629    1.01949211845896
C        -0.64676273205938   -0.21431534330805    2.31164467106673
C         0.30727710320457   -0.19140973268744    3.49112249656288
N         0.39311222410745   -1.13284887612829    4.37452383149566
O         1.34719345405802    0.64232013197251    3.57630411761540
C         1.57558437582184    1.72756285751172    2.65729152981971
C         2.89833741848179    1.62436677571299    1.87817533009381
C         2.81694901494876    0.62365390845144    0.69866271912154
C         4.19773906771678    1.37735588428462    2.69136263256094
N         4.15111009333847    0.38551416874605    3.64357311727476
N         5.22266597220664    2.01971809305472    2.24297025369440
C         6.52943433095508    1.92869547541830    2.91121122198911
C         7.50201991940856    1.57237887959322    1.77498400278635
N         7.54838784914014    2.57447601697442    0.70786494280472
H         2.97496512511310   -2.93204535661845    1.01610940951913
H         4.28540762460064   -1.70092969090262    1.22399310675571
H         3.52273524154923   -2.04340811180543   -0.33326532176482
H         2.33740951573722   -1.01630021298587    2.14840840986599
H         0.60714052235366   -2.03784032649454    1.03639142380160
H         0.82947587776864   -1.14212565901563   -0.46575632870396
H        -1.20357602661491   -1.15783372463281    2.36069371863447
H        -1.26693323256146    0.68209702569398    2.33930130188805
H        -0.12064577519670   -1.99666463360561    4.14310490528237
H         1.53094461564978    2.62856254654779    3.28605470875875
H         0.79523165876875    1.85574824007061    1.90532280784118
H         3.01986545582401    2.64928144862970    1.48403492869381
H         3.80950336833772    0.54218142678494    0.23474535818768
H         2.09064748737675    0.92704835933693   -0.06960270541545
H         3.23276511366699    0.08796126637941    3.97111151743516
H         4.91333362162561    0.27868993678239    4.30164862423496
H         6.64942699633727    1.13366120376151    3.65697144596887
H         6.82676774935358    2.89487611426243    3.33679920210252
H         7.22330859374933    0.57902004624648    1.40597890697196
H         8.54373439364255    1.52797345317090    2.10869288541895
H         7.57640588719206    3.49316656572837    1.15686108616555
H         6.68334397835959    2.61378342695880    0.17441272829895
