39
 energy: -54.520364126588 gnorm: 0.110739369465 xtb: 6.4.1 (79825abcba525fcdf90b791dcacef51065a7a4e7)
C         3.05598870302871   -2.46217201828461    1.14812841461414
C         2.17445269901017   -1.21944383131190    1.30956287167090
C         0.70029512855563   -1.35968028626904    0.90029753395901
O        -0.13515292702565   -0.21306205069828    1.02643897696637
C        -0.56279679516261    0.26756377198237    2.28483286975788
C         0.44570695295817    0.43221683501364    3.40630249687715
N         0.46844210816481   -0.25903446527624    4.49979596462196
O         1.40458458059831    1.35253853346615    3.27458672310150
C         1.71459540115182    1.99813655545575    2.02494886049658
C         2.92836384230793    1.36112282608947    1.32614507711505
C         2.76216010447265    0.01230941785491    0.58292304361115
C         4.27481264618153    1.20130738663927    2.08262853389428
N         4.13674630337885    0.74951393853581    3.37470028450607
N         5.38809210198867    1.32441536135881    1.44261810377184
C         6.64448540287620    0.88859030826790    2.07031790253968
C         7.28531115653283    1.98010023123104    2.94315520844815
N         7.85259227101801    3.07167003717103    2.14832237261005
H         2.85378577751648   -3.19189463018397    1.93856679628583
H         4.09685091562254   -2.26440737309044    1.42647683223292
H         2.93331644482566   -2.89248368212548    0.15630170531045
H         2.09226621832699   -0.95713864087983    2.37714840721262
H         0.31297142334486   -2.27245066936074    1.34736433656334
H         0.60420582114531   -1.46952130667631   -0.18732019392313
H        -1.43960797239449   -0.31080773983839    2.60005076911654
H        -1.07433631427008    1.19782348002668    2.03608469688903
H        -0.22468258189659   -1.02077021580244    4.44487356276153
H         1.91853431492591    3.00795020103690    2.40942460089042
H         0.83638902993815    1.93046957688104    1.38073340825814
H         3.09669426380182    2.04142634258234    0.47208548532837
H         3.75601607285486   -0.26404277762765    0.20490054742220
H         2.29521371106882    0.12998135336176   -0.40596938515445
H         3.20405080847974    0.93644474998940    3.74118715327764
H         4.84552848109507    0.88842087162229    4.08448347716010
H         7.33615279118545    0.73331077818985    1.23358584315734
H         6.53232057650070   -0.07923186799744    2.57408034470910
H         8.08831711165613    1.50666496785531    3.51904323533585
H         6.69300997181262    2.45899745225415    3.72950071664039
H         7.05186659033110    3.55637328298280    1.73567722368156
H         8.26647558557363    2.62990355700895    1.33103404239235
