39
 energy: -54.531695550248 gnorm: 0.092017803423 xtb: 6.4.1 (79825abcba525fcdf90b791dcacef51065a7a4e7)
C         3.71157646901592   -1.26906930343684    0.20436788727577
C         2.61677385126123   -0.57637982436834    1.02237076371177
C         1.22851906969427   -1.10597510169953    0.63175270731699
O         0.24269044763484   -0.16546170550253    1.04671656922805
C        -0.37472320991803   -0.48155503576287    2.27810646404661
C         0.55784917338404   -0.50668528567338    3.47458540470394
N         0.61002864465994   -1.37320323390239    4.43401085713737
O         1.46443314645507    0.47314133107205    3.51739576585278
C         1.34252427276809    1.62242929143576    2.65787627794062
C         2.66890477087826    1.86429652962996    1.91655170829732
C         2.74019696569110    0.92748275136663    0.68504949287449
C         3.99288873679859    1.80832337582823    2.72566607916179
N         4.06667938338950    0.90478185848406    3.76045915269217
N         4.94911963151093    2.50796597899536    2.21548691451517
C         6.32349024078321    2.48387609587055    2.73798068337824
C         7.07550264048396    1.20400062692996    2.33761503634790
N         7.01072849133199    0.74882811625554    0.94703457080727
H         3.61623174849024   -2.35755435462775    0.13891843075045
H         4.69892311081932   -1.04012116305293    0.61995446998670
H         3.79140178669454   -0.93480364319419   -0.82802313676204
H         2.69413364231599   -0.79586048117978    2.09993339448651
H         1.00894323521356   -2.07757908636315    1.06857110751561
H         1.19703054235533   -1.14893766640772   -0.46431901832482
H        -0.94807758411058   -1.41620067716796    2.29749923030542
H        -1.12949018150372    0.28768431622616    2.44402547077286
H        -0.05190042830713   -2.16154385554000    4.37038200478516
H         1.18754076655226    2.46109818193541    3.35195905240221
H         0.50586268597425    1.56345504023236    1.95976579803605
H         2.64471004953546    2.87557543070776    1.47237223898866
H         3.74483091582711    1.04623969217237    0.25653034850169
H         1.90561176671850    1.24887885538771    0.04476364445276
H         3.23005253519275    0.50020322929658    4.17944396655924
H         4.94776938638357    0.49174123877820    4.04070429583144
H         6.42608067659544    2.51927349716608    3.82924520856705
H         6.89278551382119    3.35905613224920    2.40182579989413
H         6.75330730886235    0.36681909180749    2.96683977788084
H         8.15060517272471    1.32000048144561    2.50849827078469
H         7.77061594818280    1.16832280066461    0.40576741627562
H         6.14068440197817    1.07373938115694    0.53245865855432
