39
 energy: -54.521607488004 gnorm: 0.106918679673 xtb: 6.4.1 (79825abcba525fcdf90b791dcacef51065a7a4e7)
C         3.19995793900896   -2.12979777582050    0.43313336295993
C         2.34085925075907   -1.04086824618057    1.08407276281090
C         0.86633436564577   -1.28091494220930    0.72566112709652
O        -0.09112740545342   -0.27937851643083    1.05552514078928
C        -0.37072994179099   -0.29543773146497    2.44080497339294
C         0.66404520303218    0.31769280033282    3.36557304595677
N         1.12347273071691   -0.36685402673799    4.36276673093788
O         1.14046775856150    1.55969002445356    3.24619185473946
C         1.53004914715273    2.17681485844074    2.00446659341265
C         2.87676679276483    1.59608293277553    1.53922565469844
C         2.71804721585550    0.37716596470657    0.59670252489453
C         3.95216271426727    1.30294513280118    2.62011716997012
N         3.66722858726553    0.71636338126983    3.83146495547888
N         5.12133959187659    1.76600931242008    2.33244181846556
C         6.29107010562837    1.31784528902471    3.10273669580160
C         7.52202488198901    2.04361836573797    2.53537409648784
N         7.80733953023611    1.87188689740026    1.10912180436635
H         3.01864394055619   -3.13275263583227    0.83235852988013
H         4.24554073971867   -1.81968694846743    0.53594741794662
H         3.03859412420904   -2.13072432332650   -0.64292318680633
H         2.40492790701341   -1.02436975202799    2.18449110272418
H         0.51622174947093   -2.23629071726439    1.11000010237489
H         0.73176905737946   -1.30459103014879   -0.36316491789500
H        -0.61445980097554   -1.30580893875875    2.79069005879401
H        -1.18234696595027    0.39777021239914    2.66367721634392
H         0.67902687915944   -1.29624581630854    4.31399732238504
H         1.60633577382674    3.22742513371333    2.31995778988446
H         0.84894679508841    2.19205415647246    1.15199596828846
H         3.29007964896750    2.35507487186375    0.85098911624142
H         3.75645066027905    0.26821662803072    0.25484059776253
H         2.11198159728365    0.67286215604107   -0.27222905933501
H         2.77110725893755    0.25853950686921    3.99437750917009
H         4.40613783662896    0.31774976658032    4.39766262989928
H         6.43710729656498    0.26354048969428    2.83863333952265
H         6.29080730060797    1.30392669080408    4.19947892683365
H         8.37779293615823    1.62401337250517    3.07592864874552
H         7.36471426985670    3.11939586430926    2.66366537474281
H         7.04458120403061    2.38853318675563    0.66454198084561
H         7.75256038210098    0.88289555826727    0.87822656347203
