39
 energy: -54.519143446760 gnorm: 0.121185343657 xtb: 6.4.1 (79825abcba525fcdf90b791dcacef51065a7a4e7)
C         3.62992978109981   -1.45322164079344    0.19317309759394
C         2.60126660168950   -0.65943306675546    1.00514104704948
C         1.20318839205368   -1.17039840673150    0.62488231873141
O         0.20543494829399   -0.24059096218139    1.03544863912231
C        -0.29713398625106   -0.35644967467842    2.35128940030565
C         0.69667433048205   -0.17835608486749    3.48377001050383
N         0.63192230647677   -0.98062250069087    4.49680950863729
O         1.39942871576997    0.94847491893319    3.62581079243169
C         1.45898015471347    1.97288896828008    2.61510419543498
C         2.76427364247029    1.75966040492402    1.82891744554478
C         2.65692470988600    0.83016105453041    0.59449146799948
C         3.98850242052831    1.36423621249314    2.69819083069416
N         3.89023345510129    0.33387996470722    3.60446796948640
N         5.00224062553816    2.13054267187618    2.47622384690652
C         6.34820375341060    2.02539130446179    3.05914844103956
C         7.22185433200125    1.17051327752609    2.12650984629993
N         6.94799710139769    1.44477888472581    0.71411035069105
H         3.80494551514477   -2.49269679965712    0.48818977289551
H         4.62668593039753   -1.02226320326871    0.33716911635851
H         3.58647860128214   -1.45151701723204   -0.89404625772602
H         2.86380260519702   -0.80422605718547    2.06599322997567
H         1.03152036041293   -2.21184040234243    0.88749765980599
H         1.18673203965962   -1.07586341301243   -0.46827954553830
H        -0.76844946010046   -1.32915449673445    2.53671012640227
H        -1.04899836867395    0.39107762168701    2.60591533943701
H         0.07931061791371   -1.83592161748788    4.33321425411562
H         1.56175615836782    2.78019940972065    3.35457917365546
H         0.53475663191127    2.03431745479482    2.03814992295361
H         2.89097873739414    2.81054975877861    1.51246335738685
H         3.53339519604013    1.06249916081201   -0.02586305103080
H         1.74193704432926    1.16406377233028    0.08351160412270
H         3.07422143288294    0.28542149778787    4.21352690367736
H         4.76776985695627    0.00555409695712    3.98864434163662
H         6.36945643383183    1.53709733800908    4.04085785048158
H         6.58806874600478    3.08844571978332    3.18331531369918
H         7.05949997855364    0.09172439024277    2.22879441023925
H         8.29139703674017    1.36769385520979    2.25181237825384
H         7.27901644331396    2.37719225067317    0.45448296197304
H         5.93871243964396    1.48446050098121    0.59500083613456
