39
 energy: -54.514918986163 gnorm: 0.128508376371 xtb: 6.4.1 (79825abcba525fcdf90b791dcacef51065a7a4e7)
C         3.63713495561785   -1.27398681659325    0.17126788601634
C         2.52820083923333   -0.56274195913466    0.95353130815281
C         1.11539935082194   -0.91799441218527    0.46558397069019
O        -0.05615910756525   -0.39586676345203    1.08481899427967
C        -0.33283829765026   -0.61338323048104    2.45360345608695
C         0.83926906215525   -0.42584216285264    3.39852532145965
N         1.50211107227205   -1.37913798191127    3.96943758631525
O         1.30102849352716    0.79401707736648    3.68576929625159
C         1.24754083208000    1.77126289901551    2.62906307931632
C         2.60597114593710    1.91774148457120    1.92156167313122
C         2.66721543837257    0.95741912539858    0.70775343008409
C         3.85283920292250    1.79148272087203    2.83813758771735
N         3.72799710150905    2.15964262848244    4.15779731535072
N         4.88408264673990    1.24056294149549    2.29299131382345
C         6.17299625513964    1.19435351317253    2.99941969348339
C         7.21677649683335    0.68445183762866    1.99223568733178
N         7.44264958694402    1.49716323883338    0.79491648642167
H         3.65134247611639   -2.34941853924491    0.37478375388336
H         4.63127491669445   -0.81914634237785    0.24046851531268
H         3.29575831345864   -1.20100151301944   -0.85930087666346
H         2.65525659891943   -0.77632847912087    2.02755884461346
H         1.04685930018504   -2.00245340870201    0.51342862988660
H         1.06911892572701   -0.54016642616550   -0.56364616430436
H        -0.67231534877339   -1.62749281269287    2.69652501645528
H        -1.10147695772783    0.07868256254686    2.79881502779299
H         1.12832254466838   -2.28543660051093    3.64914924806967
H         0.93606839746000    2.66015816265452    3.19650156009120
H         0.53825935045372    1.37110173560026    1.90268187585082
H         2.73879912533694    2.94467068377113    1.53641369954427
H         3.63995224962244    1.36513914906909    0.40023313867129
H         1.94934441901300    1.36216116188999   -0.02069626562447
H         2.82465854944862    2.27682384109355    4.61542670232283
H         4.51628099721494    2.30747923737420    4.77603054865801
H         6.14024141522023    0.44768671518782    3.80194811109267
H         6.39589877805920    2.18626747107533    3.41107304711664
H         6.91046434022637   -0.28620451520120    1.58651947830500
H         8.19861004438851    0.57131600507986    2.46309200674152
H         7.68133559014647    2.45975475078674    1.04555854999206
H         6.62989678038064    1.63612754302149    0.19948468277404
