39
 energy: -54.530866685892 gnorm: 0.094004253852 xtb: 6.4.1 (79825abcba525fcdf90b791dcacef51065a7a4e7)
C         3.46940545327576   -2.02251581971288    0.81894809275268
C         2.49953038122503   -0.91668915891598    1.24793518236609
C         1.07502678079661   -1.34336529266505    0.86187570413705
O         0.14906428737991   -0.26120484805481    0.87373954117641
C        -0.59213669468110   -0.01402426274247    2.05143158084694
C         0.20628690457977    0.20515392097012    3.32279513536942
N        -0.03073770643756   -0.48517034652248    4.39113261736185
O         1.14772960018588    1.14631861144946    3.43087878303478
C         1.60450929523433    2.01279524561485    2.37491057016642
C         2.91742599440336    1.63078940891593    1.66945442227213
C         2.87472355982456    0.46106797444385    0.65494538171572
C         4.09127116255008    1.33805925499991    2.64266005141828
N         3.78774665014449    1.09447751282973    3.96219400465815
N         5.27537987996858    1.36988945292362    2.13174570491337
C         6.52276510768472    1.08414371979250    2.85621386438017
C         7.70446434392362    1.72451558115033    2.10961670159009
N         7.56157206516349    2.07192098875665    0.69399562913181
H         3.44391554957247   -2.94663752940611    1.40505668449019
H         4.48455343421560   -1.65447823001492    1.00335459564438
H         3.37046966679846   -2.21232029877683   -0.24788029473668
H         2.62320935356295   -0.77947875401393    2.33475362902733
H         0.72522169905065   -2.09181814562686    1.56933092837101
H         1.07252815696348   -1.64944695771839   -0.19193561941872
H        -1.27905341838098   -0.82285690082862    2.32821482967110
H        -1.19778269541195    0.87321446598860    1.86453099056425
H        -0.76097401800717   -1.21041282775218    4.32436486099779
H         1.70029667283577    3.03697956928353    2.76350744878009
H         0.86997045046211    2.08756844726025    1.57135567612620
H         3.26941512902244    2.53451741575467    1.14035599424659
H         3.94112158914503    0.32394119047185    0.42908539479378
H         2.18267883604687    0.64086488312484   -0.18084229425324
H         2.88799182205393    0.74677642460016    4.29192393894790
H         4.52855169385937    1.10532243758862    4.65251984824466
H         6.59560628125224   -0.00821927724618    2.92003621340934
H         6.48090136727720    1.49850936921785    3.87089896379754
H         8.53112383252286    1.04473778094819    2.34444167122468
H         7.85799468366430    2.67122693905700    2.63750735812173
H         6.66443614697670    2.56321863972361    0.68180408138230
H         7.50526689410629    1.30420475715191    0.02927106201128
