39
 energy: -54.519651259681 gnorm: 0.118511187666 xtb: 6.4.1 (79825abcba525fcdf90b791dcacef51065a7a4e7)
C         3.50400951351225   -1.89344503995422    0.86663226603604
C         2.46008126682135   -0.83707357117555    1.24323990170076
C         1.05602002946310   -1.10468873084340    0.67994680417715
O         0.14105986612326   -0.03121447951033    0.87773317320102
C        -0.57269032451544   -0.15144621011594    2.09162800895664
C         0.28111352309588    0.07131946142089    3.32583992012267
N         0.19511772324570   -0.69115070491926    4.36762550134186
O         1.10505191010119    1.10647569626490    3.50849941965500
C         1.56065055756432    1.99651388905359    2.47179300776761
C         2.88919589744213    1.68018301491687    1.76309763692414
C         2.88617855275729    0.54851216213085    0.70545294940664
C         4.04137825824452    1.29813757175075    2.73121420950143
N         3.73398983006492    0.69751225563591    3.93012648011117
N         5.19289588578858    1.50917847911347    2.18933878399766
C         6.49975917301370    1.54812444253059    2.86244070886785
C         7.42029165452461    2.14815626558161    1.78704390124201
N         7.81750409037603    1.13702209734372    0.80473961076334
H         3.34166141633607   -2.82372477387105    1.42016335169706
H         4.49364600871531   -1.50656500604283    1.13295217474775
H         3.52600812409842   -2.05546591054565   -0.20910103525242
H         2.36007232447750   -0.83497502496881    2.34109750598260
H         0.64440660649731   -1.98986319406281    1.15961202197440
H         1.11449232244772   -1.27134608930564   -0.40311221895253
H        -1.06173367805494   -1.10189896627550    2.33688286632988
H        -1.33571755530648    0.62713068188660    2.06841297883916
H        -0.45843267256458   -1.48117240684332    4.25619278100239
H         1.52044300311527    2.98132669800481    2.95930029990278
H         0.80839867927191    2.13676797486792    1.69379255253757
H         3.09580471238295    2.70212994670748    1.39771693174924
H         3.93248472905621    0.47797916102956    0.37790186119403
H         2.45040475985050    0.83959045940389   -0.26158814779676
H         2.86102680571465    1.03056039847078    4.33779194932204
H         4.43820098210746    0.72328532749130    4.65736914947247
H         6.66159399550954    0.49135861740413    3.10675920645287
H         6.54993321311656    2.04039849314422    3.84131053427817
H         8.34108336002249    2.50970322169085    2.25824764527094
H         6.93589998564435    2.96332610625852    1.23990100768902
H         7.10510344086671    0.97718916837959    0.08828052580483
H         8.20817582227457    0.32024538521072    1.26806307876807
