39
 energy: -54.521217757438 gnorm: 0.124201403833 xtb: 6.4.1 (79825abcba525fcdf90b791dcacef51065a7a4e7)
C         2.49530002588385   -2.53328607391191    0.64817810095442
C         1.90610743453037   -1.21637125484770    1.16405368562889
C         0.41836169713481   -1.12380715628145    0.79210015518155
O        -0.21941073274455    0.12490932097579    1.04224410871469
C        -0.60215590684432    0.24662678356942    2.39728162860719
C         0.64599559667272    0.24959465057772    3.25983228996207
N         0.85571173157396   -0.56789193926253    4.24055042977767
O         1.56877787410071    1.21511395536866    3.26555569404800
C         2.00642117030754    1.88186974873696    2.06622113527584
C         3.17170881393106    1.13304105358906    1.39636488999677
C         2.84239257147962   -0.13708427875747    0.57318038354586
C         4.34639377242637    0.97610108880697    2.39946892957268
N         4.22787718669327    0.08778111955497    3.44324597371590
N         5.28976259864690    1.84302923645077    2.24896659771934
C         6.44094896360511    1.68975249639864    3.15104800439752
C         7.47387011700504    2.71967042248638    2.66500325403835
N         7.86596404317013    2.68447699699642    1.25428871046872
H         1.97622402642771   -3.46071670480674    0.91010648552798
H         3.53265756813907   -2.70680645239346    0.95438530554493
H         2.58445620356908   -2.48583163461960   -0.43521291204907
H         1.90602112178046   -1.34917641582813    2.25843034769953
H        -0.07514224472205   -1.92083246723902    1.34368212518923
H         0.26754291881679   -1.30322397303372   -0.27994174048379
H        -1.34937629708701   -0.49758392083079    2.69809037749367
H        -1.03639434281246    1.23565766025670    2.54623257713010
H         0.12882954010707   -1.28519586376654    4.38476216472933
H         2.40358731225751    2.85649442124913    2.38481506633780
H         1.31428637011841    2.17603506800819    1.27549046521292
H         3.68527534894914    1.80510512835053    0.68562928281339
H         3.78728338434324   -0.59909269095800    0.25576772291310
H         2.36723851484701    0.10181591659797   -0.38960161434671
H         3.31980416567726    0.09863587585434    3.90634661548247
H         4.88366337430091    0.15588727000922    4.21185870571015
H         6.72156246043322    0.63379162884368    3.05703329813453
H         6.09611013112999    1.96875391256051    4.15418394460584
H         8.38651920218868    2.54245566746618    3.24489386060937
H         7.07311733623125    3.72812956785800    2.80960570379348
H         7.00823088503603    2.63187957063933    0.69939934116863
H         8.23124214138345    1.74489958597366    1.11944273813664
