39
 energy: -54.530662841046 gnorm: 0.092474581387 xtb: 6.4.1 (79825abcba525fcdf90b791dcacef51065a7a4e7)
C         3.58335045775772   -1.74022255489446    0.54265121395762
C         2.50651326104592   -0.79461827714942    1.08467924266561
C         1.09994830221454   -1.14299773350547    0.57427574669244
O         0.08008821725527   -0.24273795113352    0.99621916659873
C        -0.56905137918403   -0.49906954715830    2.22518115601541
C         0.27742233984969   -0.21038870777016    3.45075457356817
N         0.28314315846510   -1.07483505384612    4.41344508096460
O         1.11218630752473    0.82158393221620    3.59904132383335
C         1.56467752778271    1.85652378634005    2.70536941396128
C         2.83998984555607    1.65613231563313    1.86825004734034
C         2.80711056508605    0.66629783677788    0.67726433406099
C         4.08504861468245    1.45679520160687    2.77424451850783
N         3.94480248485130    0.44743733029684    3.69845053618574
N         5.16895224964809    2.06955585723613    2.43684658628120
C         6.52598145134118    1.90467908512525    2.97884476344776
C         7.40438597569343    1.42002210400542    1.81376552819750
N         7.39053681067912    2.29900186754281    0.64231577823852
H         3.51650695857524   -2.66646619811590    1.12211528843678
H         4.57359445534612   -1.29004514464840    0.67203426059378
H         3.40065513064764   -1.95388649597091   -0.50849434034835
H         2.48408128232625   -1.01819443225081    2.16394196507698
H         0.82973165042204   -2.15567808645853    0.86496394454682
H         1.08352723467815   -1.08585936535280   -0.52147791658957
H        -0.93023995370937   -1.53442217368046    2.24135311791393
H        -1.46766116919222    0.11735142076526    2.26335316461198
H        -0.41543721852691   -1.83054154605907    4.34582249814312
H         1.75765471851298    2.72262002594506    3.35481024312531
H         0.81191632827186    2.05178984341276    1.93982349202995
H         2.94888845142747    2.62268968139757    1.34434761631284
H         3.82450346991884    0.75739167508883    0.27274631106862
H         2.02535167291073    1.05063690317664    0.00575083191922
H         3.06392883668982    0.34501948650568    4.20119185707244
H         4.73415027146495    0.17670788226644    4.27211867601840
H         6.74964505810151    1.38682424839081    3.91928986584564
H         6.84811007610601    2.93312339098050    3.18273879849004
H         7.07463992382704    0.43788195435465    1.45700958936031
H         8.44064579705487    1.32104401784768    2.15269239802350
H         8.14792330681412    2.98650667758562    0.65113066068127
H         6.48025749783396    2.75053835926901    0.68617469694516
