39
 energy: -54.525672045746 gnorm: 0.120988639822 xtb: 6.4.1 (79825abcba525fcdf90b791dcacef51065a7a4e7)
C         2.45192131279499   -2.60203771981626    0.60818476565491
C         1.93794910113485   -1.29188507406256    1.21388500136297
C         0.43851006478369   -1.16788123863364    0.90306262498518
O        -0.09156640997940    0.14440617694849    1.06287244302156
C        -0.40586112752185    0.42871294611314    2.41113953934775
C         0.61038458523180    0.25266491447495    3.52385529147045
N         0.55521393581062   -0.55804417389661    4.53072182212126
O         1.71326761750461    1.00575831056225    3.54078922752221
C         2.12578581990300    1.76295501169107    2.38710807419019
C         3.19053315174767    1.09498174773231    1.49971193115197
C         2.74614745814946   -0.10897943255967    0.63236015046755
C         4.50941592369275    0.72460477844179    2.23053458165543
N         4.44006879487540   -0.14294191480481    3.29598414538876
N         5.50142294861455    1.46501675338162    1.86739236041668
C         6.74329433197873    1.44880190524111    2.65477232538944
C         7.61599005459708    2.50818120576511    1.96194174328891
N         7.05093188085793    3.85040078926815    1.80622534476305
H         1.85098759528799   -3.42313110414039    1.01174178935071
H         3.53010456277162   -2.69497076458103    0.77808818746923
H         2.13423633022879   -2.57461489086986   -0.43213301131948
H         2.11820833187689   -1.39588366162937    2.29646913329788
H        -0.17424154811837   -1.87493191546962    1.45772734747102
H         0.22175633769641   -1.41221862403289   -0.14456688465471
H        -1.20255001381796   -0.25188336610791    2.73478945451163
H        -0.81494398750184    1.43943970224913    2.40738354068816
H        -0.33163731356625   -1.06689708777615    4.39565428297091
H         2.43641705735610    2.70956512293013    2.85248298586971
H         1.20846268450282    2.04574638412755    1.86808388265295
H         3.47096145086962    1.97723255376151    0.89675315779445
H         3.69396202557996   -0.41693165661368    0.16993804702521
H         2.14402847257423    0.19529251206833   -0.23635451347429
H         3.52974227373421   -0.17318296626049    3.75376984266263
H         5.30385720184583   -0.26566584022132    3.81005410890152
H         7.30220865428103    0.51596549632324    2.51311405728890
H         6.45662101149960    1.63922275074106    3.69621153686411
H         7.81132866242567    2.05628341306553    0.98304555312464
H         8.52738947133485    2.52953502012447    2.56807508324664
H         6.42748063822495    4.01271830169630    2.60079217336344
H         6.44271888562918    3.78443137970555    0.99373397499789
