39
 energy: -54.526524987342 gnorm: 0.118120686477 xtb: 6.4.1 (79825abcba525fcdf90b791dcacef51065a7a4e7)
C         3.01554174902971   -1.90361133561661    0.22767621395265
C         2.27968992477588   -0.77542679224252    0.95792405285719
C         0.81431464924623   -1.01988708990881    0.56649153211348
O        -0.16339433505547   -0.15924678558362    1.14268761514676
C        -0.45480035805590   -0.36869766739974    2.50967281484430
C         0.68853944466026   -0.30804191678560    3.50515239188361
N         1.06874814106847   -1.14368804039417    4.41685966165771
O         1.45444853519160    0.78204313662018    3.59941401546960
C         1.56078780653787    1.77811731192834    2.56450990363597
C         2.79539938631312    1.67455251177637    1.65217461795679
C         2.64989140407952    0.65318149780473    0.49678334430356
C         4.12270070925491    1.38239766816147    2.40294046598981
N         4.24574142121454    0.30225502347552    3.24601928803934
N         4.98738112289811    2.32589890216369    2.24078837674286
C         6.19491085799278    2.39746626348849    3.07698494785102
C         7.33998218113998    1.53487788126745    2.52142264037119
N         7.90983900633616    2.05743560478999    1.27752217514637
H         2.51496751541743   -2.84143903267724    0.48859497354843
H         4.06558087098890   -2.00211925028780    0.52381280122836
H         3.06205346843278   -1.74394312997968   -0.84762818990695
H         2.35626225253363   -0.77089510943494    2.05765750154749
H         0.52525034628483   -2.00491183538503    0.92594423234746
H         0.55477607610830   -0.92566685602012   -0.49556911075972
H        -0.90173247868745   -1.36893888530230    2.55909926866500
H        -1.17112803490335    0.40564724435140    2.78570920721869
H         0.39002941406204   -1.92014106327305    4.40497441631393
H         1.57552075031362    2.73106042158735    3.11297927972280
H         0.65383360769383    1.79427801092565    1.95787020300574
H         2.94197967021305    2.69106400476790    1.24500830368902
H         3.59107469664253    0.70772837363238   -0.06732646800978
H         1.86651402607557    0.92094661992146   -0.22738209767204
H         3.49089544514253   -0.31232415737087    3.54880074343727
H         5.02320944530062    0.46270458471054    3.87471549077505
H         5.91732260826105    2.12839816708244    4.10323207703320
H         6.47411885906952    3.45744428143651    3.03791047403802
H         6.93805976638160    0.52385031451063    2.39146816502930
H         8.13783962742169    1.65343544921627    3.26160512080435
H         7.17671556559515    2.02078634891554    0.56508851234180
H         8.77503644378295    1.62342068667600    0.96530161203643
