39
 energy: -54.526890083890 gnorm: 0.115502536185 xtb: 6.4.1 (79825abcba525fcdf90b791dcacef51065a7a4e7)
C         3.70726672232420   -1.18605783273063    0.33357041281202
C         2.53031269100598   -0.50242104958012    1.03710444782960
C         1.20550475985932   -1.16184486931183    0.62437073270950
O         0.05039023338102   -0.46446138405996    1.08042470015326
C        -0.28407668607660   -0.71668543094665    2.43022119855460
C         0.73705147566436   -0.29880405210039    3.47164188254668
N         0.99512910976582   -1.08888361340847    4.46322822264926
O         1.35289816517890    0.87086970984503    3.66238661965127
C         1.29981866078006    1.90507721871928    2.66133930426352
C         2.59213902887349    1.96362212741896    1.82837612269718
C         2.46910889909892    0.98829353631305    0.63133892904937
C         3.89539660146077    1.74746329209477    2.64417490971150
N         3.77033846075480    1.80016953543819    4.01319337891439
N         5.00318862905144    1.49817680442895    2.03195505186811
C         6.14155143231982    0.88498268460471    2.73238188412966
C         7.26086977974901    0.74077906804629    1.68824191018127
N         7.66442567081201    1.97721485211088    1.01484682710636
H         3.82626991569792   -2.22200184715018    0.66648510294920
H         4.58508058208503   -0.63567960040247    0.68925212111402
H         3.72747231440814   -1.22486425992579   -0.75363822914980
H         2.65798714096460   -0.56903464104475    2.13006344875850
H         1.21047432693136   -2.20998883558365    0.91490074804807
H         1.17631240313084   -1.16315144945494   -0.47260539796521
H        -0.38858813415693   -1.79355337191369    2.60940430445089
H        -1.21354434614285   -0.22586708761821    2.72025342846051
H         0.56212708964896   -2.01477569993912    4.32570455219820
H         1.02529643560607    2.76672931371066    3.28690264661665
H         0.58084016067833    1.74533341670251    1.85611221903445
H         2.75586470034658    2.99528713953556    1.46861646660727
H         3.32735460804074    1.22585242743125   -0.01209040728339
H         1.62424110547190    1.26265793412884   -0.01728766023528
H         2.80228722561406    1.85317293499898    4.32822366946987
H         4.49224677625040    1.36285143659127    4.57271170901800
H         5.85812139469673   -0.09712333392941    3.12958614869670
H         6.46499569628896    1.48550146624659    3.59133375441125
H         6.78649912525299    0.19662128755060    0.86394140207622
H         8.15724079339252    0.22696300234720    2.05020124463437
H         7.71514406525747    2.67227376529402    1.76364294297463
H         6.85661105653579    2.24430170041032    0.45760594517568
