39
 energy: -54.525757460512 gnorm: 0.112249687859 xtb: 6.4.1 (79825abcba525fcdf90b791dcacef51065a7a4e7)
C         3.68815818388114   -1.50677733566957    0.34079470343204
C         2.57987970945284   -0.80909215287406    1.13608985890233
C         1.19677003794101   -1.25071065189465    0.63380937617110
O         0.10780943425633   -0.38689496152876    0.94462406318577
C        -0.53057475519570   -0.44859723377415    2.20402635462394
C         0.37779786245773   -0.27665228784720    3.40701377097774
N         0.54673767895995   -1.18944350887199    4.30831547688667
O         1.08830046005207    0.79577861135185    3.76599207226782
C         1.43241528232622    1.85298666699725    2.85035326701940
C         2.72828880832023    1.77090382138166    2.02493138306136
C         2.73022400226653    0.71082636360204    0.89553670261704
C         4.04871725301179    1.54932209632847    2.81112656869975
N         3.96234274554014    1.17727190421926    4.13277218965208
N         5.09711817598347    1.95370769832834    2.17749585455831
C         6.43412243054432    1.76983218504944    2.76151989243689
C         7.24702234054870    1.11531143390585    1.63249692516761
N         7.42462846323459    1.99278714682815    0.47336613658014
H         3.62898981625424   -2.59974449180400    0.33100440873122
H         4.68470353290149   -1.39691771375721    0.78216878102040
H         3.66657882246436   -1.09704682734881   -0.66697118206519
H         2.62787861092397   -0.99522714099088    2.22160696290809
H         0.99017848459347   -2.23975744213561    1.03648112503835
H         1.16963916620243   -1.20573777700401   -0.46229823240460
H        -0.83677429664453   -1.48458555718704    2.39282208150262
H        -1.39642266842162    0.21349872623026    2.23348474847632
H        -0.07641986321693   -2.00069486690293    4.17706923957752
H         1.43907009080025    2.73778440545538    3.50321232731732
H         0.66581358417202    2.04178207781092    2.09701606335773
H         2.72531744689524    2.73025355966754    1.47702167165804
H         3.62481625623238    0.84707988315326    0.27251109523839
H         1.86745326054911    1.01358106327806    0.28417747011275
H         3.05528254894145    1.04585586831591    4.57903248852877
H         4.74785030106155    0.86407772069213    4.68985995080557
H         6.45437563627850    1.07367824827729    3.60863001039442
H         6.84030709132970    2.71729503261540    3.13617372296181
H         6.67965152548658    0.21207593307458    1.38177292371518
H         8.26772852171277    0.81207286836247    1.88687414463728
H         8.27305713626901    2.55121833676084    0.59460253615358
H         6.59386096318571    2.57557815457261    0.40556319829237
