39
 energy: -54.531256906041 gnorm: 0.104536514143 xtb: 6.4.1 (79825abcba525fcdf90b791dcacef51065a7a4e7)
C         3.66013513857691   -1.53700273624040    0.61217236341127
C         2.54347899812363   -0.64857992887588    1.17013667039215
C         1.20470465824265   -1.24967847545601    0.71552830131084
O         0.21521198809722   -0.23750248189636    0.87371346148486
C        -0.42100067733427   -0.36675132748986    2.12908746076281
C         0.51917628046216   -0.37937525449672    3.31979841144963
N         0.65207320564729   -1.34659114923973    4.16885970309872
O         1.11580711522565    0.76867198890325    3.65116920376310
C         1.36846092044068    1.91866889457643    2.82160816609329
C         2.70275333288601    1.77639542058512    2.06876745824571
C         2.72250339673099    0.84870036390943    0.82848839555884
C         3.98552341833563    1.51789057179214    2.90447600250636
N         3.90036695389119    0.96243019776702    4.16019938212568
N         5.05212002898812    1.99245651861767    2.35555075971801
C         6.46135615954846    1.80060921029055    2.72934585679664
C         7.14767733319819    1.04317586783418    1.58080134067516
N         7.33197899196252    1.87154052234164    0.38709424077095
H         3.56131677767140   -2.58554858680067    0.91043480537929
H         4.63285909776904   -1.23888503804989    1.01827184208085
H         3.72110452509883   -1.45441733011916   -0.47106317171458
H         2.65130805856510   -0.74855430543525    2.26269126476140
H         0.95631707741394   -2.21245968068683    1.15642979450834
H         1.30635406825893   -1.40716037619222   -0.36571051980561
H        -0.97158915861288   -1.31493162242702    2.15100208353757
H        -1.06150726086333    0.50117329611918    2.28842875277563
H         0.19227258095562   -2.22347213708381    3.88016819869829
H         1.46784336731720    2.68677518010329    3.60216704108861
H         0.53015059828568    2.08690612246937    2.14354411449617
H         2.68472080237310    2.78396185298861    1.61594240589792
H         3.67895992156535    0.91168839473226    0.29160417803548
H         1.85006925555770    1.18615829685123    0.24989122110695
H         3.01966890050180    0.65061137905606    4.56801869681008
H         4.65394919699173    1.17283388725488    4.80308630111916
H         6.66962039373256    1.31063399441429    3.68808791464051
H         6.98086128069472    2.76624772729337    2.75568970715614
H         6.55118544059485    0.18581509770131    1.24953639371414
H         8.17117908139849    0.75543091918242    1.84185597016840
H         7.89280445916848    2.71068431372316    0.55348944359866
H         6.45829505726492    2.25420885953506    0.03402404769538
