39
 energy: -54.527519221623 gnorm: 0.104191143386 xtb: 6.4.1 (79825abcba525fcdf90b791dcacef51065a7a4e7)
C         3.38072011187095   -1.94174033059756    0.60991122232078
C         2.36043966229219   -0.90426345233573    1.08971296806406
C         0.91787055296409   -1.29015464528279    0.72862114654872
O        -0.02448640075869   -0.25177141709169    0.97830527067350
C        -0.47286149784838   -0.30556264069186    2.31752218778679
C         0.40322414388145    0.19534127707937    3.45041839140722
N         0.52024084820257   -0.28575816947418    4.64579433342222
O         1.13308500844976    1.29923428201097    3.27011102706750
C         1.54032377786338    2.07957523418479    2.13005712581426
C         2.90139434777587    1.66106454482606    1.54723398366730
C         2.81610683866898    0.47358751393019    0.55631285556294
C         4.04163836607905    1.29107864609219    2.53398959888163
N         3.83470225754493    0.95149253202600    3.85098913772216
N         5.21945658007497    1.31157316819699    2.00817181314366
C         6.41725823293863    0.89405179548630    2.75209503935772
C         7.47123121523728    1.98751796133250    2.51257627906141
N         7.75767991514223    2.21719118768633    1.09472963775768
H         3.05074526756572   -2.95852141710380    0.84538261525228
H         4.32140144098234   -1.68307373071628    1.10810102236094
H         3.44942151649123   -1.86692341346578   -0.47342593001981
H         2.37723595418241   -0.97464389832915    2.18974114715396
H         0.70965234342478   -2.19751643641089    1.29109596462809
H         0.82035656857703   -1.50830072144286   -0.34241286130625
H        -0.75493518464830   -1.36024390197977    2.42123167030898
H        -1.37123703811449    0.31177184011976    2.29011786283949
H        -0.04850957712276   -1.09825175741631    4.92873740412817
H         1.73822567382714    3.07839704778484    2.54517893804155
H         0.80608043813827    2.01946203338351    1.32500312847494
H         3.33911347915879    2.53373346749458    1.03011047542978
H         3.83334591409156    0.29222258277935    0.18301315077144
H         2.07199566130776    0.79622342728126   -0.18665315942979
H         2.92137338740238    1.01814426782867    4.29883347970901
H         4.62067942182374    0.57480111363956    4.36654997014231
H         6.78209143788612   -0.02304403497291    2.27411175366118
H         6.26167990609444    0.80277551753479    3.83399214431042
H         8.39225283710682    1.69922484380257    3.03143347252492
H         7.25191324938152    2.95378915508227    2.97811050557694
H         6.81225161697640    2.25625227040109    0.70612387734548
H         8.06978856432614    1.29604489072515    0.79724866794236
