39
 energy: -54.507361516667 gnorm: 0.119002342350 xtb: 6.4.1 (79825abcba525fcdf90b791dcacef51065a7a4e7)
C         1.42251222532331    0.16438108264122   -1.04632037242647
C         2.58687105021388   -0.07973293555859   -0.08080650524786
C         2.26551777514445   -1.06858219933499    1.05021697514433
O         0.86983543578028   -1.20738432877430    1.29805416547046
C         0.28518367500247   -1.01775383394559    2.57071212129819
C         1.16580130231699   -0.25521825895389    3.54279068000146
N         1.63260546683525   -0.81384516325876    4.61241823678097
O         1.36319237669528    1.06456240248742    3.48798922859480
C         1.25436632645097    1.62400009523943    2.16523274998945
C         2.66005388201616    1.96876771148696    1.64319360175095
C         3.12552043268559    1.31327728374007    0.31919456226764
C         3.72852768825159    1.80926932010250    2.75838711918794
N         3.64422721878871    2.74592962052309    3.76247375281631
N         4.73567903457385    1.02907306817692    2.55565564527452
C         5.93736800039392    1.00674140403035    3.40295698981348
C         6.76392353101607   -0.16722053337211    2.85294257352186
N         7.61984284635784    0.44456039300652    1.83401275745339
H         0.92430178005834   -0.78571395781141   -1.26375935940474
H         1.81207075912620    0.59639095510909   -1.97454149995997
H         0.71392524842528    0.85864756142830   -0.59929086097535
H         3.39426133993796   -0.55007761917554   -0.66578026395172
H         2.86782728902410   -0.68795451154377    1.87203445194898
H         2.60352432574826   -2.07739384220203    0.78140261114492
H         0.14442205124059   -1.98966135605220    3.05882658312414
H        -0.66685780608698   -0.49540066977049    2.47224555848588
H         1.51178005780648   -1.83778946657802    4.58753950701956
H         0.55557279412972    2.46232711452620    2.29951486620520
H         0.76228310581750    0.83414678753763    1.59529883491306
H         2.68035821289953    3.07158971666510    1.58044682874242
H         4.21888950278994    1.34479213719063    0.21637383492383
H         2.74013499860683    1.95684374944699   -0.48522705015675
H         2.71019265408040    3.12436647058474    3.91590654315229
H         4.10404691864960    2.37568516776286    4.58524006031224
H         5.70479116239841    0.74921288157605    4.44325652338932
H         6.38828892264086    2.00648095767651    3.38784205447556
H         6.11180426586081   -0.93388343754827    2.41984328890162
H         7.35269371094933   -0.67787319075398    3.62176377726165
H         7.09489927124695    1.04538654635754    1.19384321122879
H         7.92335805121188   -0.38018833947232    1.32207009922822
