39
 energy: -54.523372807020 gnorm: 0.119163685875 xtb: 6.4.1 (79825abcba525fcdf90b791dcacef51065a7a4e7)
C         3.51023168162699   -1.57591395555909    0.33731196630454
C         2.45012210161858   -0.59219981885786    0.84329057692379
C         1.02536573366726   -1.12471994264216    0.62696546067707
O        -0.01570507084912   -0.34878456228543    1.21238358995408
C        -0.24383191028610   -0.48606194672441    2.60038530472220
C         0.98673871358200   -0.16080630956703    3.42609067501797
N         1.63378958604296   -0.97981246268333    4.19069995442812
O         1.34690925218768    1.12298573065978    3.50317903869837
C         1.37461085988730    1.90154797654819    2.29174526525514
C         2.66387260043307    1.91891705208471    1.45219205434528
C         2.71706926908711    0.84440381565051    0.33779008882708
C         3.89123976680301    1.88956489076170    2.40268713456302
N         3.86484410947942    2.83359644618832    3.40305543825359
N         4.76940573469018    0.95571640834106    2.25807863995700
C         5.86303311068523    0.57345554466661    3.16379957932440
C         7.14273014419872    1.28800377722443    2.69937213981607
N         7.54268680728997    0.84633512930813    1.36144268943108
H         3.58564653129283   -2.52661220949356    0.87458227118677
H         4.48255915786742   -1.07501161487858    0.39780140733616
H         3.34751048683520   -1.76363198190073   -0.72203717018990
H         2.53190103952534   -0.57058094334980    1.94244586509475
H         1.05634027640352   -2.04868374921421    1.20000091169314
H         0.72514121710264   -1.28133915077251   -0.41684783352742
H        -0.67488221979783   -1.44591568678466    2.90949729726641
H        -0.93148233354335    0.33708791596796    2.79658082944043
H         1.29709957472715   -1.95260829044130    4.25384882502502
H         1.12625400460283    2.94664958670875    2.52672992990377
H         0.53993074527214    1.61429848344043    1.65015688014622
H         2.80987295502062    2.91019162647833    0.98676276812501
H         3.76565311035359    0.91230832152894    0.01703762026777
H         1.96436917504517    1.16085766143340   -0.39915862092009
H         3.01058862042293    3.33823678139851    3.63706894986308
H         4.37868812059008    2.67964165789196    4.26196273870837
H         5.83518575492820   -0.52030459359888    3.08930577369181
H         5.69120515252927    0.77049412395814    4.22901704866651
H         7.98577306028889    1.03401503792666    3.35157984708732
H         7.16327082845446    2.37717160028678    2.59077180099000
H         6.92099438389031    1.20002927835895    0.63016035684870
H         7.46640304905159   -0.16272722842760    1.25950554388091
