39
 energy: -54.529378117517 gnorm: 0.114065617584 xtb: 6.4.1 (79825abcba525fcdf90b791dcacef51065a7a4e7)
C         3.76351735098504   -1.32347814978763    0.23193210758863
C         2.62069201446932   -0.73686245493326    1.06702040059262
C         1.22070341902563   -1.13172905275699    0.57263467365412
O         0.24596621623544   -0.17777915577245    0.98310451791706
C        -0.31721334131334   -0.45636380041023    2.24906464563981
C         0.55026830486595   -0.31828905360540    3.48611578792477
N         0.41490076117815   -1.09547837123902    4.51165252891934
O         1.32147895619231    0.75547790996130    3.67597365291459
C         1.49950169691080    1.83204217020197    2.73585898585204
C         2.81259458410377    1.79118100455020    1.93494420541963
C         2.80717912458284    0.76919340405950    0.77098015632492
C         4.10633335707963    1.60500147567547    2.77298343353504
N         4.11855433523825    0.56032645942796    3.66804420444101
N         5.05014595694808    2.40918364764504    2.41707771789908
C         6.40263743142708    2.17736336295505    2.94575607876799
C         7.02822675964687    1.10575538488820    2.03790649680570
N         6.78841104480022    1.29848545533856    0.60597239032027
H         3.55192461058036   -2.39547819132147    0.29688114848815
H         4.67929269190731   -1.10864015925263    0.79334373183577
H         3.82325096268316   -0.97923399218793   -0.79853608285909
H         2.73817696607741   -0.96339444172382    2.13948394394061
H         0.83095900964624   -2.10439963931700    0.86426694681950
H         1.23657276559198   -1.03423429088942   -0.52027587519367
H        -0.70714328604286   -1.48107659003950    2.27339804602659
H        -1.21972397615772    0.15068250817570    2.32588126046453
H        -0.21289569672411   -1.90352786444144    4.38278329584580
H         1.39605617901350    2.67724979529445    3.43160273318455
H         0.67088017361992    1.80502937545626    2.02628483183595
H         3.05713351782282    2.79505648090767    1.54379138679444
H         3.79115459213716    1.02609086576247    0.35526726371673
H         1.96815307109244    1.13443863533147    0.16071376236765
H         3.26398741605251    0.16329959216635    4.05696793375129
H         5.00958307361061    0.39443100667460    4.11971441259645
H         6.42018658063296    1.93813286033053    4.01584805371190
H         6.94316931271484    3.11959333313846    2.79388348339432
H         6.62745964667845    0.11269989812002    2.26992601089820
H         8.10626390420383    0.99414913191684    2.19244601521896
H         7.07621705740159    2.20367608083718    0.22627184895335
H         5.77758193819616    1.35230897415576    0.50725672810803
