39
 energy: -54.517051763862 gnorm: 0.109036317169 xtb: 6.4.1 (79825abcba525fcdf90b791dcacef51065a7a4e7)
C         3.06781465376696   -1.04326640597798   -0.52048732135405
C         2.21352459373107   -0.28711344910134    0.50223520800097
C         0.74293561918747   -0.65238519827154    0.24876024465785
O        -0.18744701594185   -0.26394471285018    1.25480231841011
C         0.10964339387432   -0.86310246003965    2.49986575300391
C         1.30034845086983   -0.46665113817878    3.35246907778902
N         1.89653189289179   -1.33572153419195    4.10303899057836
O         1.68585275141037    0.78567200369769    3.61104323110180
C         1.44880472219055    1.86020453197254    2.68169592972207
C         2.63005160080299    2.01477252823964    1.70798568386285
C         2.36334026656845    1.24760586453311    0.38903888304603
C         4.03584156828688    1.86659754149273    2.35027169065894
N         4.23743469080646    2.21278632958948    3.66638056323458
N         4.91550689087633    1.57055500320978    1.45433206705819
C         6.33039261731453    1.49209037136992    1.84729048645774
C         6.87781908928357    0.32609394962259    2.68673858798102
N         6.81970886354039    0.70430563522452    4.10048215084422
H         2.80185452930166   -2.10029660382015   -0.62111695098223
H         4.07962433620090   -0.94558335604269   -0.11222020719612
H         3.00427783061588   -0.62762319455934   -1.52405128471897
H         2.65082075042055   -0.66831566999370    1.43965424227523
H         0.67155970459965   -1.73053136694461    0.12408275257121
H         0.48466648145426   -0.15154313517610   -0.69286856347050
H         0.31029840785905   -1.93489077726962    2.38289925971751
H        -0.68178065687950   -0.75445045440255    3.24200737623735
H         1.40894257506464   -2.24450744289656    4.09636864871602
H         1.28879895698727    2.81468592701518    3.20371097377675
H         0.62284394111296    1.63830077561591    2.00391548592444
H         2.44133884989097    3.09480714568065    1.57204995034140
H         3.18067525014216    1.35346013280057   -0.33744554232560
H         1.45250062824059    1.70610363547380   -0.02320474701452
H         3.44370414844996    2.12069489360376    4.29937947485239
H         5.16714662183863    2.01708317406647    4.01680244422629
H         6.63013351150096    2.46051089381903    2.26556447409757
H         6.90453217247274    1.43876463830467    0.91425380289385
H         7.92134934555414    0.02789457952246    2.53597961629153
H         6.26632105589467   -0.55927111434278    2.48499281083295
H         7.74208902197002    0.63397075811144    4.53710867169082
H         6.19554567915653    0.05999169601179    4.57974940609936
