39
 energy: -54.522339757095 gnorm: 0.111574679970 xtb: 6.4.1 (79825abcba525fcdf90b791dcacef51065a7a4e7)
C         3.34446314570212   -1.91739987781816    0.71279881441530
C         2.45156153172310   -0.73834569414956    1.11292144877957
C         1.05464028304753   -1.19257831396714    0.66282288673244
O         0.06778711795705   -0.20401936064719    0.94119413559223
C        -0.55577088409524   -0.28348901682281    2.20701232170481
C         0.46378877806841   -0.34845744647349    3.32869044862834
N         0.65505201869603   -1.31715621711951    4.16482100638528
O         1.26062982930012    0.69585157083805    3.57004170480694
C         1.48087212087413    1.76885783482672    2.63481488060105
C         2.78073003564119    1.61158202934621    1.82674260158468
C         2.71780602543312    0.68975754545868    0.58352882147011
C         4.06384444045330    1.41887405991500    2.67951083631024
N         3.93254030312037    1.48984105314896    4.04711895701339
N         5.20346954965449    1.20957660713866    2.11240478506498
C         6.48660517249520    1.33198247338914    2.82025676293325
C         7.49855917021837    1.54501917326094    1.68251294092597
N         7.54967413856183    2.84115727299031    1.00243571791892
H         2.84497614159589   -2.81604516365133    1.08846267682965
H         4.34317105337981   -1.83181790230499    1.15465975281764
H         3.37392603189062   -2.00268871391203   -0.37154181043398
H         2.62922494095449   -0.66442602733521    2.19840250212993
H         0.80110884557129   -2.11247119798944    1.18489286098057
H         1.08245474069095   -1.38862482036983   -0.41653000298000
H        -1.19526250225738   -1.17334054451885    2.25046941225398
H        -1.15968974077640    0.61942141614114    2.30170255928321
H         0.01843223253739   -2.12550437658173    4.09433580359158
H         1.52511617451570    2.58671122668577    3.36850049453127
H         0.59966672421067    1.96325196701415    2.02119710309625
H         2.98673857530146    2.59239632758828    1.36184518776504
H         3.66157462638184    0.84211384280105    0.04213283016595
H         1.88246829275621    0.95799996804909   -0.07983438207120
H         3.08529422907894    1.04366250542308    4.39679800384409
H         4.78463384619355    1.39433160390456    4.58588981781037
H         6.69281380346088    0.36216177804983    3.28883105426738
H         6.61669842213255    2.06576866717719    3.62503678202601
H         7.39468496980485    0.65422581259266    1.05298623439580
H         8.52867423451352    1.40460658428847    2.02551405534678
H         7.30611026277601    3.57198541613719    1.67544517902107
H         6.71326599689968    2.90453927952201    0.42726498002031
