39
 energy: -54.520822042820 gnorm: 0.106578303275 xtb: 6.4.1 (79825abcba525fcdf90b791dcacef51065a7a4e7)
C         2.67019440304025   -2.67845020709476    1.38758396946430
C         2.04238626227250   -1.28419861705581    1.48484448523826
C         0.58528492222104   -1.37258975455501    1.00594197352905
O        -0.10582219300681   -0.13086317181487    0.91052415551048
C        -0.44433797810999    0.32300451936349    2.20545537223788
C         0.62005658214618    0.50230936385852    3.27166295127853
N         0.70351779074453   -0.20268883731393    4.35336762433263
O         1.53324762864867    1.46114001200895    3.09698235683947
C         1.83836849712098    1.86958325065216    1.74992122457765
C         3.06122941617041    1.15615490729400    1.14744446899399
C         2.90372650813321   -0.30408925297964    0.65532648620154
C         4.28531383920633    1.16120611874286    2.10260121116626
N         4.20538982212814    0.74859956720406    3.41256190442309
N         5.36338849070766    1.22597853557267    1.39710871383727
C         6.71094064897208    1.04071848463199    1.95590790046314
C         7.10397749805436    2.14344061452484    2.95261370462461
N         7.64787158613642    3.36581124356916    2.35672696625642
H         2.14241724696216   -3.43521234093987    1.97659695215524
H         3.70542264674404   -2.66653962319387    1.74555528817288
H         2.61079688486608   -3.00216666734749    0.35046467867436
H         1.98678043627560   -1.08811569353516    2.56824513943556
H        -0.05775334884045   -1.97640225442047    1.64229910693457
H         0.58402600036154   -1.72642920812086   -0.03281044343536
H        -1.33345002022160   -0.21519088963745    2.55545431906412
H        -0.86549681453379    1.32171350267230    2.08655593220945
H        -0.08691055771858   -0.83728058277697    4.54362009918189
H         2.01327533079824    2.95311569738573    1.68282940211454
H         0.92261259625992    1.77740515700599    1.16363363953307
H         3.30567008051070    1.81452261857888    0.29458662195232
H         3.92458260801314   -0.70483227154859    0.72074120440976
H         2.58733195476399   -0.26395432656781   -0.39732612888133
H         3.37491746587713    0.79928429858401    4.00156389508808
H         5.01054222933039    0.91014729363632    4.00509158759452
H         7.49534747970163    1.05055063896816    1.18958858680442
H         6.73598995580110    0.10655622099084    2.53014714594427
H         7.89233478745817    1.68286657417346    3.55839491146460
H         6.29371693594442    2.43927688000182    3.62675109839515
H         6.87594565833712    4.03410311354200    2.29434741176539
H         8.20395921022280    3.30937354801772    1.50702197357488
