39
 energy: -54.528373829288 gnorm: 0.098003306908 xtb: 6.4.1 (79825abcba525fcdf90b791dcacef51065a7a4e7)
C         3.27164783522095   -1.08176166771891   -0.27136404634427
C         2.29733919491478   -0.45153078883576    0.72917176445407
C         0.88290928188238   -1.02701567205302    0.56032232925589
O        -0.16292748624763   -0.14025943329812    0.94568884367578
C        -0.44240766266451   -0.32990319053324    2.31804512147794
C         0.67699975948560   -0.44156722512171    3.33605434244666
N         0.81604837785604   -1.41020030508474    4.18251088209206
O         1.52910183395052    0.57767523228248    3.47336520166592
C         1.55788025241117    1.82073303881157    2.74640067554829
C         2.69778898750590    1.83217212367093    1.71304481612149
C         2.36156943021443    1.06053918271470    0.41272203016268
C         4.13256571346189    1.64075853714756    2.27474686648324
N         4.24104907390354    1.34041985436889    3.61290122739756
N         5.12831487544254    1.91916559440807    1.50329809275006
C         6.47678744613169    2.10561474782910    2.05947530209954
C         7.35744630820708    0.88791882738760    2.38436472222923
N         7.34030577173958    0.55900600573866    3.81146468304735
H         3.22200399049238   -2.17424876532324   -0.22465873721091
H         4.27825833831932   -0.69413975406308   -0.08039965611048
H         2.97537158800332   -0.69713267108669   -1.24512878314648
H         2.62874190537420   -0.75691744819013    1.73525762175430
H         0.79230653507572   -1.89810157349666    1.20533291877124
H         0.82060891089372   -1.29744174579832   -0.50137392581202
H        -1.06849655804383   -1.21699021414143    2.47219795081436
H        -1.06489208839372    0.53231891844167    2.55891364531445
H         0.17663731263133   -2.19033848104493    3.96752814040996
H         1.75191729230537    2.58167865478391    3.51610691029492
H         0.57418643762969    1.90701708050571    2.28192208744230
H         2.74959934190552    2.86576803007410    1.32631364182047
H         3.19047815751945    1.37557855512115   -0.23587781615742
H         1.35857115326267    1.38225720585033    0.09604262557943
H         3.55245052439371    0.73909450914377    4.06391841554639
H         5.14064797546527    1.03362055226092    3.96226565622973
H         6.33917003892125    2.71126526891799    2.96329217662719
H         6.93009540574932    2.70199023807292    1.25829773827973
H         8.36857099115713    1.08441902180047    2.01070567843267
H         6.98645458349794   -0.02167396768749    1.90113745808575
H         7.67895481179354    1.34238478696606    4.37538788973011
H         7.88678025253536   -0.28503761397765    3.96434779189321
