39
 energy: -54.518884348323 gnorm: 0.110650390402 xtb: 6.4.1 (79825abcba525fcdf90b791dcacef51065a7a4e7)
C         3.54578704439812   -1.06268219547673   -0.19610848922391
C         2.58110533533091   -0.37050901768894    0.77230551274553
C         1.14947564813902   -0.81357642819119    0.43402654298722
O         0.07645268372334   -0.56882162109444    1.33809253651345
C         0.31957533361169   -1.07974120297351    2.63319417303195
C         1.35202487537832   -0.33618703969721    3.45966848625573
N         2.12992268103049   -1.01556469806844    4.23902351448603
O         1.27997943353071    0.98403703298380    3.64836210940551
C         1.10125611758688    1.84705726840159    2.50917274806382
C         2.44906957969569    2.05023191785584    1.79540383797066
C         2.72756606387932    1.15438375564346    0.56284710414747
C         3.66905155566766    2.03824351165743    2.75573340262483
N         3.52967058970362    2.83406102247452    3.86923081507910
N         4.70911759835382    1.37378308930310    2.38034687395005
C         5.96724919171352    1.13498304795937    3.10322588152008
C         6.85998936402855    0.18695080297936    2.28582367485525
N         7.03202785685567    0.60284933380667    0.89207946990510
H         3.34208062932720   -2.13764802510865   -0.16255083989799
H         4.55507108234816   -0.82088288805763    0.15440780986627
H         3.23633885411203   -0.64626202364469   -1.15254609820794
H         2.83674140729797   -0.65024146853687    1.80753373396767
H         1.30030720252458   -1.85377461731357    0.15424853518868
H         0.88027033099218   -0.30360511569564   -0.49960523294991
H         0.78104287628737   -2.06787224313872    2.51778813766513
H        -0.61959987598932   -1.23200624428436    3.16582609046842
H         1.94765424904255   -2.03004738432763    4.27483921382025
H         0.77086248597746    2.75752186092891    3.02977871193614
H         0.38316894115100    1.38984286205681    1.82642490495092
H         2.24875857946038    3.09439177537952    1.49511813871349
H         3.81094392753363    1.28332915537287    0.43366996633010
H         2.05767491637876    1.46666393028375   -0.25172076381114
H         2.62519063183409    2.94086433708183    4.32714531719545
H         4.12739084925283    2.46238091573828    4.59727195407786
H         5.78246763934891    0.67577962855605    4.08180854813866
H         6.57310336269335    2.03720656931411    3.25145121238578
H         6.34534261632289   -0.77749329404716    2.21103837494502
H         7.78689812111611    0.06320255948278    2.85505915280190
H         7.52940326129419    1.49128881323606    0.79375414937256
H         6.08782669653828    0.91943478524312    0.68550004971841
