39
 energy: -54.527682864486 gnorm: 0.113387692044 xtb: 6.4.1 (79825abcba525fcdf90b791dcacef51065a7a4e7)
C         3.59218827990979   -1.51815902301881    0.62516114958430
C         2.40872272951859   -0.62791313035120    1.01811370727616
C         1.07901211451625   -1.07373146622593    0.39088119026323
O         0.00688505584297   -0.26329731476623    0.86243031177271
C        -0.39632976401107   -0.46496064620444    2.20190237095736
C         0.64895304091734   -0.41940623764526    3.30062585071791
N         0.88383808182391   -1.34376225368968    4.17496458839908
O         1.22924666107765    0.71992508418632    3.68659330537516
C         1.41305102449110    1.82668825238140    2.78338260248817
C         2.76405228182119    1.78222380386401    2.04842300979699
C         2.71877342912784    0.87061017472429    0.79693960352285
C         4.00882416774412    1.58922192292138    2.95618168843579
N         3.81286129458104    1.91589099806385    4.27811773540408
N         5.06381366356150    1.21242434477327    2.31650926017630
C         6.46146609351999    1.23090328136289    2.77334713237051
C         7.29306015923665    1.01373707737195    1.49851903594983
N         7.26927539580901    2.19145598839898    0.62817186742868
H         3.44570436477310   -2.45509095959522    1.17185572649870
H         4.44236962900399   -1.02199492444281    1.10578127975092
H         3.79700181725798   -1.77513624190637   -0.41211940822980
H         2.34841196135935   -0.89926829688686    2.08489695412173
H         0.94284370797008   -2.10667518023639    0.70316889462095
H         1.21516682164822   -1.08673564606588   -0.69792701929739
H        -0.78847239117408   -1.48909202199425    2.19463049146358
H        -1.10049749218426    0.36059635096997    2.30930317892902
H         0.42581474380722   -2.25637946740518    4.02996766554660
H         1.38599800390658    2.77121410945874    3.34576621349324
H         0.66218814443066    1.83738427351917    1.99159390037944
H         2.90837325278560    2.78948325480531    1.61811421348473
H         3.69918621842434    0.93379080641484    0.30518743493589
H         1.90323542520324    1.23490154502565    0.15508025036545
H         2.90749318786849    1.58380169111234    4.60857488042631
H         4.57644409899891    1.64567767151320    4.88588871130982
H         6.57892113833031    0.34156964756662    3.40416092777446
H         6.72288437201030    2.15839884801219    3.29722666605646
H         6.90832493302908    0.17382015544013    0.90934596908794
H         8.32400897517294    0.78697094657501    1.78873303303924
H         7.75877921134333    2.91024716925326    1.16678130318293
H         6.29529601545617    2.44683303379615    0.48477044857986
