39
 energy: -54.527299502805 gnorm: 0.109212508370 xtb: 6.4.1 (79825abcba525fcdf90b791dcacef51065a7a4e7)
C         3.77001450699921   -1.26329389754871    0.20558660378089
C         2.66870590405156   -0.48131385937067    0.92888927868352
C         1.29872781932308   -0.97824061522534    0.44254701812517
O         0.17321908584261   -0.34469035579320    1.04293245906424
C         0.02668789445206   -0.70356032337395    2.40204122593228
C         1.10698829034640   -0.35896424520642    3.41005373821049
N         1.53724296127524   -1.21839074831983    4.27627556601440
O         1.36146386689058    0.92084441331144    3.69486841692586
C         1.24319633585790    1.91124489944456    2.65582173499426
C         2.53106254739558    1.99877960265253    1.81851330385529
C         2.81711140280425    1.03100085318615    0.64340451451897
C         3.76905427286970    1.94559322412819    2.75407748326501
N         3.69992191600586    2.34733139993768    4.06802429576290
N         4.77125361289448    1.30389594060641    2.25610038446492
C         5.96199914865736    0.95375882743259    3.04477251807700
C         7.04199638410871    0.63007159704096    1.99943568776387
N         6.84084939610099    1.30864219259819    0.71718236537382
H         3.72397968479492   -2.31475019692863    0.50640947008398
H         4.69248320603807   -0.81760965972640    0.59340087466679
H         3.81044458237259   -1.06592465996274   -0.86368774329566
H         2.70818919194963   -0.73082398465504    2.00196116803769
H         1.24276661514899   -2.03132738133180    0.70884529181258
H         1.15565728344881   -0.88695515099190   -0.64161547742272
H        -0.22989816515374   -1.76240297628161    2.52729944189715
H        -0.87352037490274   -0.14761605942662    2.66563660916625
H         1.16872949033754   -2.16096581748166    4.07770636653081
H         1.02623935881537    2.86825148927784    3.15201156288395
H         0.43545608936250    1.70811672989831    1.95074481513977
H         2.50665421386629    2.94224893446528    1.24420009761789
H         3.86188666440647    1.18219598105934    0.33909230484001
H         2.11684704181904    1.22815708822783   -0.18155191533008
H         2.80016187917444    2.35938135078385    4.54704758832237
H         4.32092635674437    1.75805142353414    4.60891440186238
H         5.70824251801142    0.12255813207555    3.71361407309985
H         6.27606828274640    1.84833299702935    3.59625683934566
H         7.04360537491086   -0.46334467348030    1.92840887774794
H         8.00887625654242    0.87809194698393    2.44902630733385
H         6.64299267163519    2.29823007822638    0.88434517520694
H         5.91868470424683    0.98671949035718    0.43364173086595
