39
 energy: -54.526436476847 gnorm: 0.111968257801 xtb: 6.4.1 (79825abcba525fcdf90b791dcacef51065a7a4e7)
C         2.56866746304040   -2.65549046954602    0.67867545706619
C         1.99941726731139   -1.36260866037221    1.27193005875156
C         0.53958293844466   -1.18381188205939    0.82783503575343
O         0.03417489844618    0.14428547952438    0.92447161672688
C        -0.61916642179963    0.44081657736863    2.14211282415538
C         0.27533108048854    0.43211518265653    3.36754463295437
N        -0.08298170270580   -0.00103358878514    4.53290609335807
O         1.57173451353373    0.75016209440940    3.32314068633583
C         2.16314004593049    1.67118501300535    2.38694914165688
C         3.21185823539469    1.04858367635919    1.44891670593766
C         2.80791478091699   -0.20745644837565    0.63744076652656
C         4.41478396621887    0.75611747826740    2.38602173877846
N         4.43196393835292   -0.31546090344724    3.24860720363778
N         5.37321456516495    1.60168870472903    2.21114981366262
C         6.71836164831783    1.57763958894541    2.80484637438642
C         7.41350136578269    2.93984622717921    2.64651011310486
N         7.74937836464944    3.28741791640266    1.26395005906862
H         1.90875438834715   -3.49635690302237    0.91454051883609
H         3.59477361532481   -2.85392649156114    1.00687075957851
H         2.61285936873243   -2.55405071340712   -0.40377264271642
H         2.17816990329463   -1.42420922800533    2.35800113000124
H        -0.17311571324885   -1.76994662154234    1.40363435847486
H         0.41045832413415   -1.42931270275176   -0.23389313701213
H        -1.52894104335839   -0.14541877716375    2.31906488680722
H        -0.78688654968318    1.51500837632562    2.05896585678825
H        -1.02339977773052   -0.39508778271914    4.68787317579169
H         2.58100446294715    2.45834008435410    3.03108617104380
H         1.37253314815558    2.19536462399086    1.84749081683333
H         3.48083523387739    1.85427794594653    0.74246506820010
H         3.79723014086535   -0.65819736107428    0.47898259323681
H         2.42293484695426    0.06172853489962   -0.35710624382292
H         3.55965595421185   -0.64602752173112    3.65968034863245
H         5.09391126100651   -0.18056765811959    4.00298712173379
H         7.32974809452043    0.78471131646866    2.35751270685495
H         6.69406519302732    1.35628031836456    3.87883290545074
H         8.38181192435652    2.92353657484569    3.15906761243865
H         6.79755469989449    3.79104449196325    2.95403851995556
H         6.86545959872672    3.42827832377131    0.76875228868488
H         8.26049059832925    2.48737565473925    0.89910228301092
