39
 energy: -54.526149704583 gnorm: 0.107455348102 xtb: 6.4.1 (79825abcba525fcdf90b791dcacef51065a7a4e7)
C         3.45177124151954   -1.47396870382911    0.15449201795703
C         2.41724285757896   -0.65631372496814    0.93470451043000
C         0.99342162926699   -1.05023109430870    0.51296150253192
O         0.04102868568309   -0.13163744912829    1.03998324648965
C        -0.34545173220368   -0.40503085530579    2.37164559996406
C         0.77320194920146   -0.46578479628683    3.39478172778808
N         1.10638632926839   -1.50048826612361    4.09652965368846
O         1.33086397470929    0.68419247215487    3.78253522388087
C         1.43329960912933    1.74195563008131    2.81035089366994
C         2.69269371213608    1.79176551841785    1.92785864560217
C         2.60041941986015    0.85996599434918    0.69394802571574
C         4.06867249524744    1.65083970130213    2.63323437508509
N         4.01046289080682    0.87225596671164    3.76595149159598
N         4.98332669913609    2.45992291149156    2.21735923132494
C         6.32378270009854    2.42508721434225    2.82104692660787
C         7.17235063968032    1.20051335606261    2.44124718269159
N         7.19899181068824    1.12720377174194    0.97871250073570
H         3.13244610862957   -2.52091428937372    0.14398714084181
H         4.41501433892728   -1.28826478234017    0.64199549066110
H         3.47390041641991   -1.23673341045001   -0.90718898440430
H         2.54475520209023   -0.91830991782752    1.99790538900393
H         0.76884005239550   -2.09145362483973    0.73309082201366
H         0.75499736249790   -0.95721115958252   -0.55414284748791
H        -0.91514166079768   -1.34180163764180    2.34740346787903
H        -0.94007229563843    0.46873741588073    2.63976287730867
H         0.55099064895014   -2.28430745779878    3.72123939093300
H         1.40804649544836    2.69583068575034    3.35681310450611
H         0.64975056601742    1.59798384079695    2.06458829895735
H         2.77768126038005    2.83768476047532    1.58232157695398
H         3.49652218366142    1.09722211859315    0.10426115812908
H         1.66970567027814    1.17544003011937    0.19994203162331
H         3.19554830720072    0.38649599198508    4.13895027891925
H         4.87628797370330    0.53967335131212    4.17239364783070
H         6.21668789310706    2.37415157975486    3.91126356029031
H         6.78000998654462    3.36736399684169    2.49392546854725
H         6.66357966141348    0.29687477645738    2.79507757035337
H         8.18265629082241    1.29830407735486    2.85139589917142
H         7.76655785817427    0.36723533648081    0.59570906764137
H         7.63661781259758    1.96569027017119    0.60475914818910
