39
 energy: -54.532025802701 gnorm: 0.112878430477 xtb: 6.4.1 (79825abcba525fcdf90b791dcacef51065a7a4e7)
C         3.45348529771183   -1.76708958207001    0.48999165688815
C         2.41250577693851   -0.81651287566703    1.09024638531629
C         1.04528915984113   -1.13288774424707    0.46500194618450
O         0.03609707371544   -0.20961799040860    0.86214525265968
C        -0.38771061823331   -0.32832278274049    2.20517610436226
C         0.49061466578861   -0.25342548905917    3.44001199201912
N         0.51183605593501   -1.11155052993701    4.40812577165744
O         1.26826662171287    0.80419417512209    3.68594994181884
C         1.46087102406877    1.80173859471700    2.66501556844261
C         2.81789046700459    1.66047524475509    1.95375613658556
C         2.84477443160536    0.63751118829975    0.79094828366966
C         4.07565008824168    1.37110764514721    2.81691297395721
N         4.02185444150537    0.45739326609629    3.84397728064168
N         5.01763962304861    2.13668496797549    2.38021267063751
C         6.38273830600756    2.05175720685662    2.92036774286357
C         7.29717636971290    1.38913526395654    1.87699258747749
N         7.53082049019853    2.19155520092241    0.67423558310598
H         3.33230698761928   -2.77815904725817    0.89152410217676
H         4.50475261056091   -1.52840394188031    0.68453997072411
H         3.28674101041229   -1.78867530738353   -0.58502798816739
H         2.33775442957904   -1.11649135684491    2.14841586787844
H         0.82199684713078   -2.14779113854920    0.78617137782374
H         1.11517719340452   -1.01012434799181   -0.62323302018806
H        -1.05144380806415   -1.19443910598479    2.31460436644848
H        -1.06570590489328    0.51306961102593    2.35116481445019
H        -0.11343542938019   -1.93158052494572    4.39181525062040
H         1.44532183324031    2.79230111035804    3.14217424800019
H         0.77213760284879    1.68665392843795    1.82642114162850
H         3.00845521707680    2.60132798591541    1.40690423775018
H         3.88112298015464    0.69746529444733    0.43121445706015
H         2.26272429070197    0.94014312975949   -0.09190243881332
H         3.07567410981299    0.26299266380037    4.16974992629106
H         4.80741130221429    0.37589682605363    4.47778974409480
H         6.48734997920992    1.51113030383745    3.86874266297820
H         6.64962031641924    3.10753993840780    3.05126516116855
H         6.96352881086401    0.37997930487262    1.61074066010411
H         8.31257795721541    1.32949571030247    2.28184471323317
H         7.77514314739304    3.14267636935758    0.96067900375457
H         6.58972163710724    2.33088075293185    0.31459885640017
