39
 energy: -54.525527777899 gnorm: 0.117849349243 xtb: 6.4.1 (79825abcba525fcdf90b791dcacef51065a7a4e7)
C         3.58530767226429   -1.94213153648973    0.85531491791183
C         2.43959497092253   -0.99261513556277    1.22041925616073
C         1.01746766429230   -1.32505952746351    0.74361783900707
O         0.19676211509314   -0.16288735739553    0.81007654193122
C        -0.51800582433187    0.04145579773592    2.01206919138633
C         0.12946358369527    0.18220545941701    3.37693456377189
N        -0.36846530889902   -0.34491897228493    4.44851278343757
O         1.27035670974114    0.84308789014378    3.58997137661724
C         1.62688943038940    1.85863205131666    2.63286490920346
C         2.87558957364972    1.53655497234321    1.79360250778510
C         2.71577645501679    0.44071350585054    0.71060133330424
C         4.17082925680033    1.26016033122777    2.60396831866146
N         4.11318574002100    0.38960804719587    3.66766234599574
N         5.18943884712022    1.96491745649920    2.24353527942482
C         6.46201736498775    1.72346320937734    2.93975249769616
C         7.56289334043197    2.22532602368229    1.99101526509681
N         7.72025305537481    1.45635947176445    0.75447973953760
H         3.28957384893687   -2.95081431513541    1.16072367370260
H         4.48636958874042   -1.56844931961462    1.35374432034063
H         3.68181107458557   -1.82989212303577   -0.22265829401119
H         2.33188717704788   -1.02453581593378    2.31708584716146
H         0.64017517076631   -2.20966501441488    1.25171395434143
H         1.13440219649067   -1.56570663173425   -0.32063110672051
H        -1.24045850986922   -0.78335552725785    2.03261609058735
H        -1.13246827954632    0.93274925855657    1.88182585934932
H        -1.10589475806438   -1.05489469702588    4.32276725909880
H         1.77905785213451    2.82271432145519    3.13934928583110
H         0.83380127908332    1.97874892636040    1.89298523588867
H         3.05645820997255    2.47866075868398    1.24561617449431
H         3.65246593730182    0.37038703767433    0.14078712708715
H         1.95022865573430    0.69327294260184   -0.03769282914835
H         3.14825719482684    0.28469241796918    3.97924259176244
H         4.79514887278090    0.39581375033397    4.41622581218179
H         6.60307840257480    0.64056008479227    3.04004533559469
H         6.53714933132141    2.29175545328443    3.87486555537744
H         8.51435734391591    2.12959777009591    2.52595347359504
H         7.51021180423677    3.27506392369746    1.68478414144897
H         6.97946531709214    1.56094895080485    0.05686276858586
H         8.07657586532602    0.50779307113778    0.84207582208244
