39
 energy: -54.518578982730 gnorm: 0.120667691552 xtb: 6.4.1 (79825abcba525fcdf90b791dcacef51065a7a4e7)
C         3.39083870458670   -0.27525978966415   -0.65784054533788
C         2.40232846736634    0.22279244704029    0.40156100817613
C         1.07391802141896   -0.53830021208036    0.27362122549713
O         0.34880470895779   -0.80962056405470    1.46911880078169
C         1.12777965599031   -1.45590473420900    2.45550130972622
C         1.83992994499270   -0.60576426593871    3.49086969825174
N         2.63084797569787   -1.15799235118793    4.35317244090255
O         1.72372896690111    0.71487404463873    3.65273119031441
C         1.21298649200799    1.68307071972719    2.71665660936233
C         2.28607897209629    2.31186803879715    1.81087873374117
C         2.20138176213563    1.75546999865967    0.36777515707481
C         3.70606866543353    2.04893849984189    2.38116809932092
N         3.82129916622293    2.74934779604277    3.55963228520756
N         4.66578476692855    1.52454051808753    1.69698109315437
C         5.98107001480566    1.44140090290893    2.34935152350531
C         6.09037574824788    0.27459039323299    3.34459120283000
N         6.25543693785159   -1.05893072524033    2.76186659297748
H         3.47326604103999   -1.36532880882319   -0.60190113414234
H         4.36870054864730    0.03241899218715   -0.27170219110112
H         3.34724034299147    0.11068613667069   -1.67424684017189
H         2.83929060340027    0.03185276339560    1.39549442864111
H         1.25597310019994   -1.43906137378840   -0.30820644033999
H         0.39343238786633    0.01995204505130   -0.38174450901666
H         1.80095014999723   -2.22606494758054    2.06006674231681
H         0.33526338012803   -2.03960637590509    2.92469402392942
H         2.75743713566058   -2.17329705863108    4.22351446497764
H         0.73270646303332    2.39435849718500    3.40406992815967
H         0.34738007401669    1.27502816830638    2.19218963536961
H         2.14851873152816    3.40656190377679    1.75353487838903
H         2.92245500855187    2.27251834389658   -0.28009490102886
H         1.17106647359721    1.91815596768540    0.01880874998523
H         2.89502591078254    2.96227112470239    3.92822170779995
H         4.51275903172302    2.29052646229292    4.13999919675480
H         6.18916722760791    2.36978479420125    2.89472749329152
H         6.54366553235702    1.50279021710272    1.40980112143421
H         5.14814255841871    0.24922593867013    3.90330382498713
H         6.92865310153929    0.51315350364397    4.00707231574803
H         7.19032978298313   -1.05308275613106    2.34675692034620
H         5.54833572603834   -1.21142866729608    2.04690541293425
