39
 energy: -54.529466296340 gnorm: 0.105644339588 xtb: 6.4.1 (79825abcba525fcdf90b791dcacef51065a7a4e7)
C         3.53630565032682   -1.88169521831541    0.79003435823940
C         2.53015621473410   -0.80060458434380    1.19801293879723
C         1.10673239677270   -1.21481251899543    0.79477433733030
O         0.17013983763609   -0.14685202645406    0.89904936711039
C        -0.58931181479857   -0.08487318549462    2.08935499587035
C         0.25144656031514    0.05854933110696    3.34412188396747
N         0.19186934656142   -0.74412851432570    4.35715301037668
O         1.10369965998407    1.07847073407308    3.47531785258862
C         1.51896985933113    1.94280006743650    2.40061614308125
C         2.88465785838065    1.66138442478904    1.75019429012307
C         2.74508076252517    0.61564590303583    0.61606490200789
C         4.08578214716376    1.43291146574935    2.70718598956925
N         3.86827853217299    0.89716799281614    3.95550491085346
N         5.20937704729930    1.61403021485302    2.09982236177153
C         6.42977455398692    1.60743091282404    2.92022532768436
C         7.58507514924148    2.00774428813092    1.98806318007584
N         7.68974539753088    1.14515906028422    0.80904553453243
H         3.56236143196824   -2.70602987455857    1.50973389228486
H         4.53141228822669   -1.43253086230649    0.70060837959684
H         3.32288142201163   -2.20884137922804   -0.22552574527139
H         2.50674071986857   -0.75667058760358    2.29929357095861
H         0.76783198438277   -2.04077447438986    1.41604039950197
H         1.09163634809159   -1.47166671602632   -0.27200050499987
H        -1.25178672208204   -0.92676855028980    2.32390345609665
H        -1.11424356882953    0.86909901438919    2.03177747261632
H        -0.47814898754353   -1.52815546024501    4.34961390629024
H         1.50938175195598    2.92398409758881    2.89692476749378
H         0.76012230936914    2.03503926956756    1.62184716093253
H         3.00742948863902    2.62262418862537    1.21961815777074
H         3.55456345454364    0.55692532075613   -0.12441526879008
H         1.94219504791125    0.93623599157497   -0.06392802731142
H         2.95325936367054    0.57375160801940    4.26746385698962
H         4.69419858340333    0.63213652485758    4.47806962414472
H         6.53331351969964    0.62144206182213    3.38899149016425
H         6.45141854917920    2.29334110844001    3.77585144766043
H         8.52998776717841    1.90897207023437    2.53394845060614
H         7.52667866328740    3.04427654712012    1.64065386703080
H         6.84790657143918    1.13582168294575    0.22801621050803
H         7.92750553368897    0.21837825653902    1.15395812543667
