39
 energy: -54.520933950601 gnorm: 0.103696526491 xtb: 6.4.1 (79825abcba525fcdf90b791dcacef51065a7a4e7)
C         3.50530368168641   -1.80754076287974    0.50498302083341
C         2.49142305504870   -0.78069753047123    1.01993859541000
C         1.04780055798820   -1.28874164070499    0.88521579546691
O         0.10777657746877   -0.22629900963969    1.01245219283890
C        -0.53808411076082   -0.24321245321828    2.26943811257492
C         0.37435795622415    0.16947707516544    3.40918434227210
N         0.24436317735892   -0.45182531600102    4.53664075180541
O         1.08151874975760    1.29937157000314    3.49314544924728
C         1.48331495593549    1.96738384539227    2.28202293927135
C         2.83979353487146    1.62916385742109    1.63943427005872
C         2.73853230878402    0.63691825135937    0.45432028345327
C         4.04362687062396    1.24097553648954    2.53989400920493
N         3.71489171039748    0.88338776740835    3.82701997239033
N         5.24401197133037    1.23022929715038    2.06753798322207
C         6.45408053985755    1.01815352920275    2.87576602787269
C         7.58195821557056    1.93344604273704    2.37175402959345
N         7.84731955811760    1.87953499532894    0.93239003799808
H         3.32293725440943   -2.79647346698601    0.93733536303276
H         4.52456042396526   -1.43535124711577    0.65522784850726
H         3.39505070799815   -1.88649675366448   -0.57462203409640
H         2.76560467451985   -0.56312014350095    2.06530075726245
H         0.77809714607386   -2.02369269480799    1.64029538341792
H         0.91507908333923   -1.79551449936696   -0.07903355897375
H        -0.85272953631686   -1.26065209184174    2.53114144996573
H        -1.43972661346118    0.36703581273335    2.20969424290258
H        -0.40642308614826   -1.24959270137047    4.47561530207478
H         1.44762307641000    3.02638943215227    2.57590989590475
H         0.65299074815863    1.93633814904254    1.57460744091695
H         3.19085828564721    2.58037632169256    1.20066986045910
H         3.75832296948626    0.62131638998404    0.04590280605601
H         1.96855634037795    1.03671736683590   -0.22176517774358
H         2.89943711813356    1.22514436575576    4.33437868897373
H         4.47883106762784    0.54597676094493    4.39974152273126
H         6.93130458450983    0.03738353013139    2.76182102406868
H         6.29511909897176    1.21840603123510    3.94238100500219
H         8.51007738613551    1.58902141293810    2.84140604381279
H         7.23623397843078    2.93608762771727    2.64320772758521
H         6.94236957169703    2.11591217147838    0.51818450413281
H         8.06872921923633    0.91648468401132    0.69170539839513
