39
 energy: -54.533856917446 gnorm: 0.101043890752 xtb: 6.4.1 (79825abcba525fcdf90b791dcacef51065a7a4e7)
C         3.72908383598551   -1.37324925964993    0.51576958588312
C         2.54539886308829   -0.53079015022077    1.00228033843968
C         1.18316050853826   -1.12208996098993    0.60861022446677
O         0.10623169078655   -0.30369909171103    1.05479318106996
C        -0.30234047042940   -0.58579552822735    2.37801881392232
C         0.68200524512908   -0.33952230416167    3.50598053150826
N         1.11149738311400   -1.24838396658121    4.32058487078189
O         1.12996533556340    0.89089076677450    3.76904487092652
C         1.28115472211319    1.84896911648214    2.70427918632927
C         2.57079240136079    1.83574001827058    1.86522809523586
C         2.49417227276468    0.95872253605405    0.59075957785292
C         3.88782915256415    1.61815368546383    2.65819907773138
N         3.79910250541386    2.02775838298573    3.96853515030359
N         4.91992474496591    1.16418121165049    2.03142339685179
C         6.20243255734218    0.86725045401199    2.68677099437953
C         7.21563353763110    0.80011046109713    1.53229599551832
N         7.67859464719153    2.11311139305553    1.07755727241605
H         3.58690016587802   -2.44479431974833    0.68824839275433
H         4.71532714871917   -1.01751098307755    0.83319241498896
H         3.72220481782405   -1.29213067446215   -0.56926925798055
H         2.54255808495426   -0.60778795758432    2.10198974855945
H         1.10822277898324   -2.13532816997720    0.99690242571945
H         1.18708321807759   -1.15795305938818   -0.48816185186912
H        -0.46150169974659   -1.66256961048370    2.51180624155317
H        -1.28264314219612   -0.14114664176419    2.55187367664534
H         0.68761915513054   -2.18440994852087    4.23191541679812
H         1.26065388443292    2.82386552818685    3.21250452027187
H         0.47443659609458    1.79987408831066    1.97104364346043
H         2.61913134589740    2.88794856994298    1.53193195723220
H         3.36670892641248    1.23925794945272   -0.01504641611029
H         1.59951048655347    1.24348060010403    0.01779622850556
H         2.90369121945667    2.24658430813516    4.40388612729886
H         4.63496090283083    1.78650675055298    4.48679945643877
H         6.14750615732444   -0.06399165761628    3.26331870370213
H         6.47058554153475    1.63393507118010    3.42387749099181
H         6.77283391434600    0.30615612994866    0.66020417374834
H         8.15367626219863    0.31007727876024    1.81237782416486
H         8.16521547063101    2.58093582307415    1.84613735799085
H         6.81477381291937    2.62441026232426    0.91383718033179
