39
 energy: -54.507353487538 gnorm: 0.117173281316 xtb: 6.4.1 (79825abcba525fcdf90b791dcacef51065a7a4e7)
C         1.95898974758986    0.13072218848258   -1.25341454018856
C         2.78244386273395    0.40940661630664    0.00825042474257
C         2.55278570724126   -0.71439383948039    1.03032410022759
O         1.15615617114033   -0.95926598904291    1.16479374966130
C         0.92479694379418   -1.47511190150013    2.46009741590268
C         1.10595942881651   -0.55523713957268    3.65294912578130
N         1.01398435579673   -1.07434544031256    4.83453298180576
O         1.71115100195006    0.63223251685036    3.56665664012946
C         1.24919110536588    1.56299808578788    2.56927665229199
C         2.43234576384736    2.25516153827394    1.87041909102346
C         2.51334431518472    1.88897344971029    0.36753991077214
C         3.83459458913833    1.98496368119581    2.47986469043628
N         3.94768453556056    2.48072807255430    3.75816722857513
N         4.83520538746111    1.59381468822083    1.76576346102022
C         6.13099900009064    1.38628121107677    2.42933215751545
C         6.18918890584012    0.12808786480695    3.31106905731851
N         6.46588071004663   -1.06306421174579    2.50503548661466
H         1.87098903157123   -0.94117864808130   -1.45702794914125
H         2.40499367124839    0.64391728451860   -2.11230576672284
H         0.91426786510508    0.41972194039552   -1.15869301824128
H         3.86444902574800    0.40615305867574   -0.20282244031393
H         2.94730040407329   -0.47876429373951    2.01616132133072
H         3.08502387410964   -1.59790519791590    0.65570330279647
H         1.60371432795245   -2.33329612432093    2.53265647573840
H        -0.10512502100743   -1.83242765936586    2.43734503166073
H         0.70558074975268   -2.05698878945987    4.77995339779326
H         0.53145889408673    2.18105733569072    3.12784581557213
H         0.64866677817810    1.07176257606032    1.80188039207733
H         2.44910403192806    3.35897175836789    1.82696846952072
H         3.35572955242472    2.47614299582903   -0.02315213082593
H         1.60411277327976    2.23402182304715   -0.14630197209669
H         3.10172181403871    2.91215684199896    4.12883274457598
H         4.55417767382289    2.13007988719390    4.48937951734071
H         6.39902526898677    2.33405949051930    2.91152952009851
H         6.70855323503268    1.27325796888310    1.50375440513730
H         5.24171674004669   -0.04017664338117    3.83508249410801
H         6.96038478679406    0.38966184926431    4.04273733424013
H         7.48404091129151   -1.03975611962730    2.40921581786372
H         6.14328679868247   -0.73755215172245    1.59707496798554
