39
 energy: -54.524753107095 gnorm: 0.106121950296 xtb: 6.4.1 (79825abcba525fcdf90b791dcacef51065a7a4e7)
C         3.19871934579126   -2.24886014527273    0.94610467692219
C         2.35787754903981   -1.02490531342397    1.32354318447685
C         1.00003114265557   -1.17469947105643    0.62060662531502
O         0.28435077779206    0.04308669216873    0.80340979680053
C        -0.55260655801343    0.26184491910308    1.92103359124315
C         0.18660694043945    0.10289638061704    3.23639795152934
N        -0.17485882182319   -0.78318302516852    4.10719014292510
O         1.17514464406679    0.92902584623774    3.58866309890154
C         1.77104660199695    1.81691350038625    2.62375134277937
C         3.07948138886301    1.41031977361580    1.92373201704252
C         3.04549044102641    0.28137585214651    0.86371759486643
C         4.30393255898229    1.17549139046977    2.84910091524322
N         3.97171012871893    1.12091145358620    4.18299684121996
N         5.39256916426052    1.17539102616275    2.15698067780508
C         6.74138663950184    1.21634076047192    2.74135143707405
C         7.44967584582725    2.31912946564350    1.93756041631902
N         7.26781752825800    2.12258909491236    0.49763292504903
H         2.76173415379637   -3.21452507545596    1.21943439822108
H         4.19776647594393   -2.09546981167402    1.36843048225407
H         3.30724627001712   -2.24215985557587   -0.13653739372308
H         2.21715551473058   -1.05356635206581    2.41655433410341
H         0.50492347097367   -2.11422913005379    0.85553337069669
H         1.23536620814429   -1.18249024056787   -0.45119897685361
H        -1.44376354926975   -0.37485687262508    1.97692490474409
H        -0.86402172559381    1.30486938142649    1.98468926909002
H        -1.02169246197856   -1.31196937366443    3.84846741803703
H         1.97130466658040    2.70775465423113    3.23647888358236
H         1.00230412470669    2.11244113840530    1.90783428483348
H         3.19424885562528    2.28459616695690    1.25812325358703
H         4.10476843061095    0.11958952457301    0.62127880112154
H         2.54657769557143    0.65886555035447   -0.04092679664915
H         2.97672130339973    1.00359994355381    4.37117729482175
H         4.51854185624234    0.99996543087620    5.02668316132962
H         7.23082846890393    0.23996290911287    2.64251302282403
H         6.78872268399001    1.38281109363457    3.82444157212732
H         8.50404359197531    2.37777579394129    2.22992286013447
H         7.03162376127067    3.31947269671095    2.08937734436859
H         6.24844248290803    2.06716843191763    0.43299594598532
H         7.68691006982303    1.24476810265942    0.20063295357997
