39
 energy: -54.527613950601 gnorm: 0.107086644887 xtb: 6.4.1 (79825abcba525fcdf90b791dcacef51065a7a4e7)
C         3.50590122207438   -1.71808610976982    0.28076256383625
C         2.50542830332036   -0.80848126972641    1.00132702426345
C         1.07831768587980   -1.29199229433147    0.70153157758716
O         0.09551025178326   -0.34801329814583    1.11579202216817
C        -0.53065025689405   -0.47898550867143    2.37603207166921
C         0.41146909281942   -0.18904196910847    3.52938738889946
N         0.45881216193647   -0.93159234298803    4.58790088381283
O         1.26372073225851    0.83890952273856    3.55714125579681
C         1.44593655198137    1.88980980175075    2.58920307638981
C         2.79005343896916    1.69515578658309    1.86614935121253
C         2.71928719466574    0.69066545588597    0.68916523450904
C         4.06015710998550    1.48902720526431    2.73510289509558
N         3.88037883929835    0.96381866919224    3.99385815898438
N         5.18869658845593    1.58907836392728    2.11821677022516
C         6.49148909060541    1.33136225084097    2.74971399586203
C         7.40960519774320    1.35035791979265    1.51658848849542
N         7.57637044960367    2.71763619018260    1.01876198345650
H         3.33336265081242   -2.77362299530691    0.51367085886041
H         4.55414450037293   -1.48071286551051    0.49247655869916
H         3.40091666219565   -1.58860740955084   -0.79448175459394
H         2.73072998973798   -1.01961631148633    2.05960801388647
H         0.90966468796821   -2.17394670102551    1.31533183159512
H         0.92248002612580   -1.57059098226829   -0.34837695242658
H        -0.99288246730939   -1.47292160765633    2.40929165040416
H        -1.31347990804679    0.26341948967902    2.21809529113110
H        -0.40127692393812   -1.47814812721027    4.74665605026942
H         1.36896299086910    2.85094411649354    3.11781652465683
H         0.72697673430253    1.83117616683461    1.77036384041065
H         3.08114691473372    2.61879767350485    1.33443884569116
H         3.65927641695038    0.73267192919551    0.12199952256150
H         1.88757456417076    0.99288580995611    0.03593417310390
H         2.98556042268014    0.98229769417135    4.48184909473898
H         4.72064469638502    0.81769165743280    4.53980658418541
H         6.54497722834359    0.34790990963719    3.23199664648684
H         6.75117753742411    2.12462988876100    3.46127965082877
H         6.88413552944299    0.73848395984214    0.77490228699609
H         8.42760823062070    1.02107667649652    1.74842074350785
H         8.04655147571719    3.24980306406505    1.75503848915923
H         6.69269501713297    3.21169516100389    0.92159872114763
