39
 energy: -54.494969954673 gnorm: 0.112354565955 xtb: 6.4.1 (79825abcba525fcdf90b791dcacef51065a7a4e7)
C         0.96802700658518    0.00290040664570   -0.68560476725893
C         2.34276381740131   -0.09080644103353   -0.01563620935572
C         2.53693982821693   -1.12397002193506    1.10470909344549
O         1.27793843291855   -1.66081900456712    1.49882475831194
C         0.42648396690029   -0.87434210667303    2.30747490252875
C         1.19231718091396   -0.10460926342251    3.36714251476849
N         1.69122288924186   -0.51416967768145    4.48849286141390
O         1.27075269540948    1.22360624712044    3.25104412899229
C         1.35786072741813    2.04241308731078    2.06932255699485
C         2.79876110251483    2.05240022335162    1.52982884939617
C         3.00451641587226    1.29029746601598    0.19710066539709
C         3.77476366593359    1.71201638021625    2.68840143465120
N         3.41285217688740    2.10316123503123    3.95672900962734
N         4.92106627210868    1.18784428267791    2.41382168919325
C         5.86344688439180    0.88658894829633    3.50177327779995
C         6.95700061185396   -0.08168974314228    3.02169708117088
N         7.48863885681335    0.57434612672051    1.82500603465458
H         0.66697731576013   -0.89416937003749   -1.23588546007932
H         0.90674925128794    0.87670235443112   -1.34340263174543
H         0.20164948551526    0.15981179127546    0.07068958153194
H         2.96717876970555   -0.52410972067901   -0.81416720082486
H         3.13319689829101   -0.74772554931083    1.93293354976852
H         3.09340180962863   -1.98455743718138    0.71234461132132
H        -0.34016916385797   -1.55776185977148    2.69199304462954
H        -0.20537478393123   -0.16834450159046    1.76779595299004
H         1.57206512072281   -1.53313094167431    4.59431834559010
H         1.09195250850770    3.04744052787124    2.42758077422500
H         0.60603699839586    1.84327627476732    1.30385249394176
H         3.15032146873078    3.07998852526697    1.32726184508871
H         4.07084841960387    1.18678361067706   -0.04629645044217
H         2.54731484253375    1.96359316279648   -0.54278681864372
H         2.40586421782019    2.09691549401575    4.11519945231299
H         3.97892758073515    1.87291124094525    4.76419608416296
H         5.33715407651869    0.40606380419662    4.33528843260528
H         6.26151463755357    1.83891366896584    3.87279485413826
H         6.46036589758998   -1.04415928107762    2.85552582978795
H         7.70847216612657   -0.42567847097315    3.73965582801488
H         6.78144310274530    0.50699378061638    1.08899469051476
H         8.32750164541735    0.13774469749678    1.45069914198750
