39
 energy: -54.526908678802 gnorm: 0.117044749606 xtb: 6.4.1 (79825abcba525fcdf90b791dcacef51065a7a4e7)
C         3.06327059649870   -2.47646450145017    0.91285490765995
C         2.22015957458812   -1.26723603714908    1.33055156701807
C         0.69904554233612   -1.44594953983885    1.20980999861643
O         0.02797365062892   -0.21759027045348    0.94634360905234
C        -0.57252593551637    0.34289377437810    2.09642776370926
C         0.33706985398921    0.56131741837878    3.29091979801906
N         0.22918482569436    0.30662749129346    4.55486880791433
O         1.49266932255200    1.20938462170852    3.12243781952459
C         1.95174955457866    1.86475954212769    1.92484549594337
C         3.20245331765366    1.18125567254459    1.34526837165960
C         2.68305135101478   -0.02856660857174    0.52927085980866
C         4.39322499826562    0.89745530471776    2.30038758964841
N         4.18449119099468    0.53439176471485    3.61082418821521
N         5.52024065171379    1.03580559876412    1.68813357268828
C         6.77436523358088    0.83773657375333    2.43003305079613
C         7.34229247748617    2.22530539287938    2.77063243948186
N         7.12279656370392    3.27183850206484    1.76979192476970
H         2.63629495432883   -3.41299719736482    1.28537639737402
H         4.08729190243669   -2.33367752362006    1.27475971659953
H         3.05396196912646   -2.53167547873956   -0.17379219895999
H         2.47818114758572   -1.05760888465040    2.38163616779459
H         0.35450211562657   -2.04115168440939    2.05246199848039
H         0.56327497447320   -2.03260695083911    0.29241696997389
H        -1.35543304537408   -0.33212296107501    2.46260074711812
H        -0.90892277396860    1.31565932807510    1.73657248954911
H        -0.63035731088063   -0.15664814964524    4.88689690373210
H         2.16973849080330    2.88154092761976    2.28229859588384
H         1.23720618662339    1.92282272535251    1.10210905286360
H         3.62007755965753    1.84290881106089    0.56528701646570
H         3.49693593868077   -0.34217995265542   -0.13875591734527
H         1.87544752566752    0.45317604611515   -0.04124990694899
H         3.21779316457132    0.49941639364107    3.93245794414524
H         4.93382317391790    0.63246129231303    4.28487421036587
H         7.38927859460088    0.43324080097879    1.61707500775886
H         6.85591044313935    0.22365832414583    3.33518253526201
H         8.40112630878271    2.20392524984272    3.05173800465121
H         6.85728580927803    2.60494618481263    3.67569813040113
H         6.13124430415734    3.48374739210714    1.63453805486385
H         7.35510628360003    2.93483210271406    0.83873010300678
