39
 energy: -54.517186465379 gnorm: 0.122999165582 xtb: 6.4.1 (79825abcba525fcdf90b791dcacef51065a7a4e7)
C         2.97118376661340   -2.16467704414960    0.85192910467293
C         2.16693485342194   -0.88429756982588    1.09962299669103
C         0.79914221064718   -0.94083353687737    0.40230534062647
O        -0.17616890451552   -0.08228835491295    0.98564650802825
C        -0.47686029603155   -0.38162721982148    2.33376245612375
C         0.53035936081936    0.10796351395375    3.35733174040535
N         0.80230193301480   -0.60514698315688    4.40212544890085
O         1.15975933171141    1.28563293441694    3.33016906057343
C         1.56283545393139    1.91939115629406    2.10119449929812
C         2.97920299089276    1.59529079388662    1.59502353416442
C         2.95584046615851    0.36748375260126    0.65096613490797
C         4.06801654810469    1.44266589851189    2.69134614680453
N         3.85783265657818    0.66612139912949    3.80733468753195
N         5.26489351982692    1.75880839823920    2.32844185911758
C         6.54145395671017    1.51890500664850    3.01787238688208
C         7.59184163589320    2.29389330595854    2.20548369076031
N         7.91172648101552    1.51291859370504    1.00846909975293
H         2.61654037564147   -2.92239420818055    1.55780920565382
H         3.98554052887071   -1.97289157872041    1.21837356456615
H         2.89213659373270   -2.50665116309545   -0.17799423362748
H         2.07201922423205   -0.80401587753461    2.19499662573977
H         0.35776009018675   -1.92357694634419    0.55208977343982
H         0.76682515232458   -0.58437520174395   -0.63504879036714
H        -0.61948395038971   -1.46744667314512    2.39145466914483
H        -1.47002068074468    0.02098314463553    2.53493107756236
H         0.27973573815056   -1.48698814190217    4.51596921717331
H         1.53362266698481    2.95479549244898    2.47027547271616
H         0.84394640778282    1.83330654274401    1.28472234027982
H         3.17040315750261    2.46689336548776    0.94362715218867
H         3.95715824630122    0.05406965761283    0.32515094909567
H         2.49932879081721    0.73643619698337   -0.27923011078696
H         2.86847913698024    0.59293830242273    4.04185651332146
H         4.51133027411086    0.69865696389535    4.58021358967735
H         6.84250946722199    0.47118004620603    3.13734634488812
H         6.47281045045963    2.07389329623883    3.96143657949235
H         8.52132101068233    2.50609089341718    2.74552703160890
H         7.07627491250968    3.19946003329048    1.86986133927761
H         7.01118158593070    1.58827774381825    0.52918342014398
H         8.26072860448543    0.62495678822237    1.36080216128102
