39
 energy: -54.524276125459 gnorm: 0.109683801449 xtb: 6.4.1 (79825abcba525fcdf90b791dcacef51065a7a4e7)
C         3.35438877030540   -2.01665232641315    0.76627925855064
C         2.44993932594225   -0.85997922495224    1.20402201270238
C         1.04036857799287   -1.16586027524419    0.67501158026950
O         0.19546493907860   -0.03744121947063    0.87854729720742
C        -0.64803125809880   -0.10007993486545    2.01081326284645
C        -0.00043787560677    0.00521594640939    3.37881185937740
N        -0.50647127436713   -0.55241238259934    4.43097822223646
O         1.13371687955432    0.69737227547147    3.51445836713010
C         1.60189509951257    1.69867417135647    2.59103974993646
C         2.93503971091700    1.52655891968284    1.84240845060240
C         3.01348469116903    0.48738477868678    0.69643123519324
C         4.20469345742683    1.32118805980565    2.71219851129198
N         4.10173513837427    1.46191401356209    4.07683210053718
N         5.32397585124050    1.40969560331488    2.07695571122658
C         6.62923649992540    1.10679133849795    2.68277605187578
C         7.72113768146790    1.99921819928565    2.07022186473193
N         7.74421518495537    2.16695737367489    0.61542884249325
H         2.92085006016567   -2.98602788239284    1.03185254462451
H         4.30126733362532   -1.98981834271304    1.31644629766738
H         3.58038212427803   -2.02714485417168   -0.29802978818261
H         2.32014069539830   -0.91986838946609    2.29711995774862
H         0.63610989082251   -2.05491924314889    1.15374660491695
H         1.02925307486666   -1.36043053856544   -0.40490943009799
H        -1.22481532114855   -1.02804722401555    2.10499730718695
H        -1.38296994863860    0.70538186535477    2.01609282619982
H        -1.39219899826072   -1.06545881741100    4.30468725011538
H         1.74390532166880    2.50367551537531    3.32652748901565
H         0.87924138441848    1.85554182844726    1.78854181061655
H         3.09158675255956    2.51418012905498    1.37266046948162
H         4.04286745113357    0.33122080910713    0.34571030879297
H         2.38363775997748    0.69636856162205   -0.18073036719787
H         3.15116893786962    1.33648057898136    4.42305022498233
H         4.74271473666529    0.86963384390241    4.59045536281721
H         6.91708378509474    0.06385742324518    2.50369832625196
H         6.57279423935298    1.28384489720822    3.76374951187186
H         8.69667722237420    1.70327672271582    2.47190305476962
H         7.51934986513430    2.98477600644213    2.50203199716119
H         6.75300275876831    2.22139737147534    0.36863118429383
H         8.05736647995356    1.26766733772950    0.25817412496126
