39
 energy: -54.527182258813 gnorm: 0.106843915728 xtb: 6.4.1 (79825abcba525fcdf90b791dcacef51065a7a4e7)
C         3.55158987740893   -1.87377203722029    0.76727792055017
C         2.54653053235522   -0.83500058915515    1.27555911231151
C         1.16725862369712   -1.26167647584922    0.75033379192442
O         0.20828953374488   -0.21784500550060    0.88966312362438
C        -0.48633194281000   -0.09810216670116    2.11465224020873
C         0.39140362891844    0.07217189214823    3.34040573229176
N         0.54319669378746   -0.74585386462669    4.33129723164006
O         1.00095893636558    1.25251482472881    3.47831982198517
C         1.45408621150476    1.99665183481920    2.33139606897312
C         2.85115673004433    1.69475376320287    1.76183605735218
C         2.97195278378770    0.54716511207440    0.72851669078814
C         3.98813178591859    1.56034064755284    2.81062271853005
N         3.71757978052473    1.09380265095653    4.07623441815830
N         5.11820768016558    1.69583010280236    2.20339031547104
C         6.37750294162702    1.50283031670445    2.93782968426610
C         7.57458803908183    1.68764774145633    1.99087333851459
N         7.32171042883355    1.17588644899175    0.64207941902214
H         3.16165061461344   -2.89561057794882    0.81163238754536
H         4.48152397685169   -1.83975868584964    1.34524721812572
H         3.82835420257636   -1.59267426647401   -0.24678439989559
H         2.44816953432794   -0.89764202355490    2.37177928896514
H         0.86253795486331   -2.16431062324163    1.27515287518041
H         1.14369602583148   -1.47197054739923   -0.32643532912334
H        -1.12916916582555   -0.97841261514819    2.23501671084879
H        -1.17302950188656    0.74780532211409    2.07200889393998
H         0.04108927165644   -1.64510895423147    4.27737060894769
H         1.42950386580983    3.06203471738452    2.60248886904725
H         0.71620225104235    1.95588349720344    1.52846144492876
H         3.22436012522666    2.57875557732742    1.21427251973052
H         4.02417855568614    0.59643642227949    0.41640373403555
H         2.38438521511061    0.70375626055616   -0.18801886521556
H         2.74248806948144    1.18072631135840    4.36051785319355
H         4.48963117982909    0.52262176891260    4.39740188523112
H         6.35200121410959    0.59700873630340    3.55546466761414
H         6.45463320223158    2.26189952603856    3.72580314756750
H         8.47662849074484    1.21744186486297    2.39810299250754
H         7.82334191486269    2.74594735992621    1.86193175553949
H         6.84340982616954    1.88180639103367    0.07703035922208
H         6.80444820879276    0.30057789176191    0.66838456818842
