39
 energy: -54.522958983703 gnorm: 0.116503512208 xtb: 6.4.1 (79825abcba525fcdf90b791dcacef51065a7a4e7)
C         3.59072056702654   -1.59779414394868    0.54601406647682
C         2.44550331035849   -0.74192149613117    1.09692205615769
C         1.03790584074417   -1.07492973143819    0.57915780135492
O         0.03041750397304   -0.17147431028714    1.02340330639463
C        -0.46057368954001   -0.32878543653557    2.33931232128186
C         0.60463249624548   -0.37320159544512    3.41877866586368
N         0.93832127339519   -1.42373609101659    4.09634955215902
O         1.31576462331463    0.74004245152308    3.61566996575631
C         1.48073075861158    1.91444062338045    2.79831237996870
C         2.72263434258708    1.82602111848220    1.89431870291034
C         2.55930668804369    0.76636626824634    0.77639384354606
C         4.05922071564933    1.53557328933887    2.62910406972764
N         4.10139378078729    0.54520748761286    3.58305692315411
N         4.93181524888041    2.38235251181570    2.19817041935760
C         6.30599861994483    2.41991581765816    2.72036166744977
C         7.27335638522562    1.30333686975091    2.29448970885059
N         7.45968383286089    1.42353461253212    0.84675826786718
H         3.28462236315325   -2.63975796917725    0.40894027241844
H         4.41833231214613   -1.55752543246415    1.26254743984382
H         3.95860509707159   -1.30924384861027   -0.43650134421996
H         2.50551235514580   -0.81306963009929    2.19539115898666
H         0.63597970512219   -2.06485949961508    0.78295326907309
H         1.03290880348282   -1.01263668282280   -0.51642658055524
H        -0.96910339415458   -1.30032426851415    2.32576160934394
H        -1.15673272088534    0.50128431733787    2.46291764056061
H         0.27737154182370   -2.15762627397322    3.79931366608807
H         1.53078596984392    2.71372194681016    3.55182423900595
H         0.55048505190227    1.94836144203862    2.22881162337542
H         2.79072825591778    2.81214171686055    1.40086639574359
H         3.52802468131172    0.84688209942251    0.26441348198329
H         1.70618311015770    1.00761932367373    0.12541689427952
H         3.23098562447416    0.27528478628695    4.03990263637269
H         4.94731887540641    0.43754276394321    4.12920574308720
H         6.24256760370941    2.43069930192702    3.81512020917918
H         6.61754786695246    3.39012042636029    2.31455702962143
H         6.96278908020099    0.29246700463124    2.58136353817067
H         8.19334980466458    1.57902097958616    2.81995415419452
H         6.65556504165887    1.86504986268122    0.39417443720240
H         7.68781309062238    0.54016671401652    0.39727475067621
