39
 energy: -54.523929314537 gnorm: 0.109622582162 xtb: 6.4.1 (79825abcba525fcdf90b791dcacef51065a7a4e7)
C         2.98201243095545   -2.50168747725861    0.80983065845551
C         2.30161084118031   -1.19376264773216    1.22687562851585
C         0.79639356530288   -1.40105981267957    0.99960089456362
O         0.09867190938590   -0.16486685642288    1.11634845718283
C        -0.43973578903899    0.15314163004819    2.38379606631874
C         0.56890236070953    0.61954331213985    3.41675452734854
N         0.69468836839035    0.09875071154721    4.59447529027554
O         1.35578046240326    1.67188176382871    3.17760174816911
C         1.81285957540259    2.08802238170091    1.87667746318665
C         2.98276816529759    1.30429489062105    1.25665148557669
C         2.72082392790550    0.04214740054591    0.39777473283737
C         4.21197041358712    0.91201654012030    2.12031355592193
N         3.80410453244682    0.37120327922506    3.31772556398577
N         5.38486343071719    1.22563797185863    1.68428183284269
C         6.67128072157374    0.84505992916704    2.28658204872047
C         7.32301918041896    2.02092607327518    3.03255277031550
N         7.38610976902934    3.21966173296897    2.19341980195319
H         2.80019301770810   -3.21576569302002    1.61927982817975
H         4.07490395980633   -2.57629229826870    0.81208332959023
H         2.55196801500230   -2.88168375799400   -0.11461591481326
H         2.52462352418467   -1.06631013357395    2.29893846391291
H         0.36247292126787   -1.99510651417175    1.80076227584709
H         0.66628599791973   -1.77728370846331   -0.02301249240882
H        -1.06838214334236   -0.63380077333620    2.81761539164410
H        -1.05021668205532    1.04128690609569    2.21813819956115
H         0.05801586456749   -0.70093606600995    4.73169353297675
H         2.31544960201009    3.04647589451559    2.07137319414770
H         0.93663930240044    2.10232065766902    1.22639105982953
H         3.36832373964258    2.02108473166732    0.50957381769382
H         3.67301728426021   -0.13589702151076   -0.12053910994809
H         1.99313436567963    0.24586452739394   -0.40145058587070
H         2.90177767459802    0.64334044469161    3.70621526091099
H         4.50936370380379    0.16518697818380    4.01459448245812
H         7.24776752334688    0.57245002814532    1.39440333471523
H         6.59384445293198   -0.01377770753182    2.96440123643032
H         8.38144819169994    1.85235702987837    3.26041026499631
H         6.70988356996176    2.33623386468711    3.88293399253897
H         6.45844546087419    3.47058765233026    1.84292017948145
H         7.81670784638898    2.85891903540205    1.34555941355899
