39
 energy: -54.529221625669 gnorm: 0.102944536968 xtb: 6.4.1 (79825abcba525fcdf90b791dcacef51065a7a4e7)
C         3.00375893373622   -2.44090591796935    1.38125274396066
C         2.16861893429864   -1.15698935940723    1.34076050080327
C         0.71331362404188   -1.40551094353927    0.91575648384203
O        -0.09114981074022   -0.23244517173241    0.98906263138085
C        -0.57623657304302    0.11730718287079    2.26960930844621
C         0.41596003073471    0.55207651092010    3.33187392727225
N         0.44499196241472    0.04911205561850    4.52361934170777
O         1.43813004028957    1.37777123448817    3.09274199021592
C         1.82989429199673    1.91151978081637    1.81362840417174
C         3.09822095254640    1.29825778813408    1.19507825283565
C         2.81744150197376   -0.04748014853371    0.48131875916038
C         4.30801213310640    1.13034323220186    2.15369318962506
N         4.24027632626945    0.82887988597218    3.49427543236795
N         5.40898525556492    1.17239361983986    1.48268645383873
C         6.71776783263227    0.86475080583023    2.07843699978523
C         7.22580684239594    2.01362769300112    2.96493279342452
N         7.37605295786225    3.22004217794709    2.14818195067399
H         2.74585743507979   -3.12759046679814    2.19373357203810
H         4.03758471758330   -2.13061168217369    1.56808042639479
H         2.92736174467374   -2.90219029208565    0.39874725674649
H         2.14891462025721   -0.95011929304285    2.42340265181544
H         0.10803855543271   -2.11490032788842    1.47561981387348
H         0.66486716879161   -1.56815830911133   -0.16840646839982
H        -1.20221393074582   -0.63634221005156    2.76239599784531
H        -1.25731891178189    0.94810170349319    2.08295781197126
H        -0.29044077592521   -0.63013931775527    4.77148204224107
H         1.94689529767836    2.98572982116824    2.01739256019883
H         1.03323947114965    1.75900764503179    1.08361473497512
H         3.46276506584152    2.01601223214587    0.43843966895808
H         3.80356109173863   -0.30177436360840    0.06910056504132
H         2.15046811877412    0.12263926709198   -0.37658552169839
H         3.31472560423716    0.60688648950279    3.85931162532915
H         5.07883745954701    0.69280747799591    4.04541880406648
H         7.38232975662979    0.67848486763689    1.22620551848563
H         6.71527819886759   -0.03415565049075    2.70692590094143
H         8.06873213854397    1.72044867076473    3.60064462962765
H         6.36333051905828    2.14636737451443    3.62600561476691
H         6.70801997479622    3.20727771141820    1.37362151205416
H         8.27108152974466    3.22954534675663    1.66522151657574
