39
 energy: -54.515290782399 gnorm: 0.133464137549 xtb: 6.4.1 (79825abcba525fcdf90b791dcacef51065a7a4e7)
C         3.40256949765595   -1.31927970987611   -0.08188915226705
C         2.43782006795753   -0.64452287384852    0.89867289732650
C         1.01719271521184   -0.98950619672150    0.42632833673700
O         0.09853683412751   -0.14305161013353    1.11058305807229
C        -0.40415681024996   -0.49216278866232    2.38449677857149
C         0.60662423649179   -0.48654776225408    3.51594486133759
N         0.96303159046980   -1.38642307020530    4.37458999971594
O         1.45686722078824    0.53580712425848    3.64110383657886
C         1.45963626243059    1.67428566110455    2.75885824956364
C         2.74974146979425    1.84907792817603    1.93884404041850
C         2.64513449611945    0.87899814779449    0.73580500907304
C         4.11658329142469    1.69979807818350    2.66008709662681
N         4.31587721156352    0.67724092422838    3.55857906860822
N         4.92998954707323    2.59606157297428    2.21372167962683
C         6.28239484221483    2.63404991568713    2.78994337723860
C         7.18627936020389    1.41897380736722    2.52446391221298
N         6.90155223203764    0.62856617972428    1.32476479113935
H         3.11863992128017   -2.36977041870130    0.03654742153929
H         4.45641202110317   -1.12492359145991    0.14532106255498
H         3.22183669357391   -1.04367363511586   -1.11886252840537
H         2.59823822432590   -0.94704370446838    1.94654916504605
H         0.86676351881500   -2.06381226288439    0.50554760804546
H         0.89485466456645   -0.79236804010386   -0.64622957824160
H        -0.73692133608094   -1.53579265607176    2.33178755855388
H        -1.21387652274499    0.21028815489654    2.58411674342719
H         0.27629120506704   -2.14780348902804    4.26338222785560
H         1.31369217045958    2.57864775904118    3.36710638998556
H         0.68048341641592    1.59001187704947    1.99947850980978
H         2.82801659596080    2.85726371521177    1.49387188522124
H         3.58168035671561    0.99501369446972    0.17327191765093
H         1.79517032883617    1.32320125400073    0.19725288701171
H         3.53713097983002    0.11952537638914    3.90741182800174
H         5.24502753019108    0.55514934027425    3.94228835839140
H         6.21424880155603    2.77064728741745    3.87591451702204
H         6.73791256210445    3.52446922639780    2.33972745638070
H         7.05902201004928    0.58257906019952    3.22077987811434
H         8.22573661487261    1.72870913767669    2.67310825623475
H         7.77023022705267    0.12603753355537    1.12667801385048
H         6.80657439421238    1.27060444359867    0.54170456823636
