39
 energy: -54.524777978365 gnorm: 0.112997979639 xtb: 6.4.1 (79825abcba525fcdf90b791dcacef51065a7a4e7)
C         3.37320868184867   -2.02324311166653    0.94238001948781
C         2.35719589463286   -0.90635420775612    1.20279769156625
C         0.98328352932535   -1.19628989165466    0.57941413122713
O         0.07975027560230   -0.14804777017034    0.91621471332073
C        -0.45684237872342   -0.18198207624972    2.22325429268253
C         0.44725769066724    0.22453551696441    3.37183215882045
N         0.52565981000885   -0.45267669938998    4.47151845806482
O         1.11780485163195    1.37953788086832    3.38294264584587
C         1.57035886753834    2.07282436991648    2.20436425686833
C         2.94739992685266    1.66503205778216    1.65226785051496
C         2.82233289543045    0.47026589270211    0.67441695899182
C         4.04823138786748    1.31422541188641    2.68949366550429
N         3.85538303288478    0.25016169715416    3.53990943059361
N         5.12611075990783    2.00697225376464    2.53970062397748
C         6.46988629271513    1.71264413913811    3.05942450367633
C         7.49755605066266    2.05902589584951    1.96955704849527
N         7.45585008333957    1.27946876444055    0.73034640048784
H         2.94002615182670   -3.01662454252143    0.78836645865061
H         3.98387708650006   -2.22231868813258    1.82975584724295
H         4.04769757438444   -1.66555907601368    0.16709703801227
H         2.26137545134080   -0.75739575437093    2.29088194332348
H         0.71967915172113   -2.17696412168738    0.96906647527890
H         0.99207765812117   -1.22583818099221   -0.51751799735868
H        -0.73352714447407   -1.20597820199558    2.50173456958943
H        -1.36862715111503    0.40959399309738    2.31053402370751
H        -0.02631682066647   -1.31440215678240    4.59970072766744
H         1.67316143426126    3.11544699550967    2.53828937249039
H         0.78438010095623    2.08209731814781    1.44740309598759
H         3.24723895117174    2.59980940303478    1.14546052115384
H         3.82237420043071    0.30703240866297    0.24980718792785
H         2.20785698496401    0.85627804116031   -0.15214691877953
H         2.98041087486955    0.38221717027806    4.04603364548283
H         4.54543014891764    0.06993547269237    4.25880649070349
H         6.65327110215970    0.70563419240296    3.45304489792415
H         6.61879859952132    2.45047158903756    3.85721714266300
H         8.43975223985682    1.80325830598138    2.46700635791633
H         7.51746364365058    3.12758440897821    1.73230424374022
H         6.47344858177492    1.25237557984058    0.44657163097931
H         7.76331786861394    0.32501630669923    0.90035022959916
