39
 energy: -54.519436187418 gnorm: 0.116134751331 xtb: 6.4.1 (79825abcba525fcdf90b791dcacef51065a7a4e7)
C         3.57433308560097   -1.32134014051466    0.25650662124871
C         2.51806576475552   -0.47602756992677    0.97573271899553
C         1.20033619308313   -1.19500870916103    0.64868555675981
O         0.12068222278935   -0.34184099594424    1.01620517798479
C        -0.40887359808164   -0.42840549771007    2.32368859565463
C         0.53114080388595   -0.05463410491651    3.45441953173031
N         0.80489984577331   -0.95632341627178    4.34103421855362
O         1.20459502873270    1.07500803669304    3.68713269217803
C         1.48597869260986    2.12163165023141    2.73850181661537
C         2.64498542047739    2.04448955285114    1.72949260525645
C         2.49040023647241    1.01827039564227    0.57958913856542
C         4.02194447564950    1.82881341012157    2.41374416104628
N         4.11614461145024    0.88666182902500    3.41179515984162
N         4.97114411704414    2.36587674803356    1.72472811008675
C         6.37342462410843    2.14784058067897    2.11014251427776
C         7.14977306391884    0.86819828948908    1.75843918949036
N         7.20162866223845    0.04058177422631    2.96568963691211
H         3.61156831334837   -2.32186185443983    0.69893603783346
H         4.57581166117776   -0.90174573355618    0.40129626958259
H         3.38327738600821   -1.51929807553567   -0.79622658818133
H         2.72677859243953   -0.49397481812614    2.05805169586748
H         1.21488851786559   -2.15193853725934    1.16551405236925
H         1.11997204071337   -1.35271209337791   -0.43431110878946
H        -0.66550756237570   -1.46591195886931    2.56943874554311
H        -1.28816321474832    0.21636836120196    2.33060992128436
H         0.24066980562852   -1.81125982927791    4.22100150201581
H         1.54471323322078    3.01379602630357    3.37860279427711
H         0.62229454250893    2.29810633911643    2.09527154272060
H         2.59131761219814    3.08565142715674    1.36388691400019
H         3.14166616808842    1.37111396105182   -0.23181417312174
H         1.43442039592278    1.16774016864805    0.31059240267313
H         3.29371828284764    0.50508368923820    3.87783130607641
H         5.01462261833717    0.49054228048970    3.65935539834052
H         6.41729021053561    2.19456165401985    3.20491600720114
H         6.83894235709466    3.11113861290340    1.86850753956868
H         8.12515434923818    1.12406992391159    1.32975797184767
H         6.63040601039497    0.31133940789875    0.97188432679008
H         7.86557822938537    0.48804676707133    3.60233783144394
H         7.57117513457130   -0.88079983130080    2.74453680004746
