39
 energy: -54.518602063584 gnorm: 0.117367229627 xtb: 6.4.1 (79825abcba525fcdf90b791dcacef51065a7a4e7)
C         3.33391931220926   -1.35657157237745   -0.02325645150604
C         2.33169066880644   -0.61504126375881    0.86736733248372
C         0.88759170797184   -1.09837329808967    0.66420906746848
O        -0.08025821503024   -0.16347650691564    1.13095636265324
C        -0.48121381342095   -0.41468662158064    2.46270850869771
C         0.71151858079933   -0.47939256832567    3.39816946839684
N         1.12364346131043   -1.46509295337880    4.12797840547927
O         1.41324887096171    0.63572308326573    3.61698241104347
C         1.46193051895307    1.86866425591648    2.87402581806884
C         2.60145504775038    1.86321746838413    1.84019735558697
C         2.45355585904421    0.90791008001998    0.62990237695463
C         3.98240741763013    1.61881736227136    2.50650941666282
N         4.00620946252549    0.71353118079519    3.54213456834786
N         4.97135183627861    2.26930278061357    1.99365685849403
C         6.28612932713316    2.42283772242110    2.63417368510900
C         7.26599675764555    1.23805642128748    2.62713123204763
N         8.02811805156528    0.99061062321058    1.40114858781219
H         2.98418820634558   -2.39378231704514   -0.01577462765097
H         4.32031759115250   -1.22771436248298    0.43543418745426
H         3.36461902872223   -1.07056694058383   -1.07263517896560
H         2.64980427792497   -0.93483132647748    1.87326770504382
H         0.75280055939750   -2.12622323629321    0.99344152310742
H         0.59555465400482   -1.07427266072803   -0.39330880552111
H        -0.89608596983481   -1.42550364071204    2.55653730934977
H        -1.25084390780261    0.26544797645408    2.82879308907445
H         0.45349013573188   -2.24168025997461    4.02080404868919
H         1.72170417170333    2.46302196699223    3.76194070894742
H         0.49479727487620    2.07616645208348    2.41311916710950
H         2.61681807443976    2.92247913496753    1.52667781323131
H         3.33407685471983    1.05650814026144   -0.01011529979568
H         1.59836271459741    1.11625385922644   -0.02966673805015
H         3.20902560561788    0.38173008667708    4.08396716527568
H         4.94681111168549    0.83001601112462    3.89872864330735
H         6.16403846214259    2.73044647805844    3.67969112349697
H         6.74065888387118    3.19248259652031    1.99849533285958
H         6.89034303655464    0.23828128143518    2.87195867677548
H         7.99140012102461    1.49140113659741    3.40694461740186
H         8.49517014671692    1.83075638997414    1.05130247881336
H         7.41827215944820    0.61732890836990    0.67784644964698
