39
 energy: -54.522670479097 gnorm: 0.114697939772 xtb: 6.4.1 (79825abcba525fcdf90b791dcacef51065a7a4e7)
C         3.57639342057532   -1.60142567580666    0.40025675126721
C         2.56143553942819   -0.72785904896069    1.14475794576212
C         1.16127081283774   -1.23774692944006    0.77078196029344
O         0.07614763295441   -0.37920592222670    1.10847047985219
C        -0.44523533217045   -0.36650375276297    2.42202829487773
C         0.51025528872828   -0.14580840907047    3.57970521323659
N         0.66501560405454   -0.90296826299862    4.61741010526067
O         1.22974992267622    0.97102744612266    3.71679115659661
C         1.33828275804550    1.90834594631003    2.62860322286270
C         2.63606155844939    1.83756305766063    1.80513065330514
C         2.69668939160025    0.74839355168737    0.70543324620237
C         3.89407950924728    1.57368961118379    2.67604641598889
N         3.82269883627326    1.13059691470436    3.97650892058158
N         4.99523911580572    1.69079664635797    2.01431114234370
C         6.29096499486644    1.38699727614887    2.63983096600765
C         7.20161635601867    1.03764776196738    1.45131695456150
N         7.94321796107027    2.15054050609823    0.85416660080061
H         3.41176481636041   -2.66156799032682    0.61744249756936
H         4.56439479497649   -1.48459670547289    0.85871844391791
H         3.58660339089273   -1.38212324725703   -0.66545382775770
H         2.68072364820761   -0.93450875157074    2.22103103355176
H         1.00239689586581   -2.28222143895195    1.02937475869218
H         1.14518868571806   -1.25658080115204   -0.32630380925969
H        -1.00151608489830   -1.29749309631308    2.58476842814868
H        -1.14585833175993    0.46855369178271    2.39486305154109
H         0.13829385432190   -1.78551794618994    4.53167843377669
H         1.28800347449021    2.92998620655406    3.03216172405691
H         0.46525375746145    1.95557531361388    1.97558824456484
H         2.64330103972347    2.80421616609364    1.27025201640479
H         3.70432581391051    0.94205570653039    0.31276919415599
H         2.07243286742779    0.83087214418031   -0.19639541632234
H         3.00838317763955    0.65672383965340    4.36575299389287
H         4.70188282503073    1.10083030113197    4.47811530292025
H         6.19759244529703    0.43433178836565    3.17494411856073
H         6.64720778212965    2.15173656476899    3.34076050258611
H         6.56218116632592    0.44168034509078    0.79059612612150
H         7.93765012211543    0.31604947882006    1.82017020470929
H         8.54160938003768    2.64954265708258    1.51696327721997
H         7.25201013151112    2.80772742993351    0.50096082581339
