39
 energy: -54.517979284602 gnorm: 0.112902847419 xtb: 6.4.1 (79825abcba525fcdf90b791dcacef51065a7a4e7)
C         3.49329408907356   -1.93331604005235    0.37813163068559
C         2.51867652714418   -0.92046173803499    0.98787496177067
C         1.05679529583307   -1.15366103862232    0.57699019736076
O         0.08899501717320   -0.20687056822303    1.01922197335858
C        -0.47521178714132   -0.40157799476052    2.30031345857372
C         0.30197936789860   -0.18948195633410    3.58595486554376
N         0.29181122544649   -0.98647164822243    4.60515911626779
O         1.12512371826481    0.84628077748344    3.76875631047542
C         1.45199431280897    1.76856527435461    2.71185270218968
C         2.76693679391378    1.59170820639684    1.93275392359890
C         2.81267079601390    0.58035528394465    0.76041696179800
C         4.08599974865990    1.49954066803743    2.74657863135537
N         3.93698447544864    0.69879458878443    3.85528472893346
N         5.17026447969464    1.91394406483137    2.18372884144459
C         6.50095273515826    1.62915310121856    2.74107748387261
C         7.50810486342506    1.50133461606746    1.58643314497240
N         7.72808154986424    2.69629868582799    0.76865391518753
H         3.11063614625660   -2.90069405082686    0.71861163630286
H         4.47821667552886   -1.83720177654212    0.84788943027878
H         3.56053622148313   -1.89042404688544   -0.70702992589488
H         2.65607817972853   -1.04475439558372    2.07459922962262
H         0.66877066406787   -2.07104782366972    1.01388438706762
H         0.91062028696409   -1.06390237640239   -0.50688561733330
H        -1.11582619537323   -1.28659732099167    2.39532804161387
H        -1.33091178550493    0.27322697475151    2.33701838958901
H        -0.41533678023958   -1.73215122223038    4.51807674201269
H         1.42434423003984    2.76695332292247    3.17184515562886
H         0.60644112837756    1.78119212305765    2.02212871352505
H         2.93452955566062    2.56490213493560    1.43740348588370
H         3.84101727229479    0.63283166968451    0.37730994907256
H         2.21709530472292    1.08753446163613   -0.01279256871556
H         2.97030963034411    0.49950582860623    4.11023642658709
H         4.57389122836713    0.55475836970269    4.62927622869664
H         6.58659221699218    0.71822121158614    3.34564758714030
H         6.89604200258896    2.39727904084305    3.41703926014690
H         7.06028519399775    0.77605106328363    0.89793634321047
H         8.44518326037470    1.06098600460338    1.94207296283860
H         8.14651705832588    3.49450902985121    1.25254113529037
H         6.79025441688979    2.87031019974942    0.41564187967533
