39
 energy: -54.522750825558 gnorm: 0.119294122961 xtb: 6.4.1 (79825abcba525fcdf90b791dcacef51065a7a4e7)
C         3.69743758413398   -0.89664324038054   -0.17781537324057
C         2.60341528016789   -0.46917572918816    0.80601739463754
C         1.25429659325418   -1.15626482264935    0.54507236867781
O         0.20394776237018   -0.39498950749741    1.13315888478518
C        -0.06206260025351   -0.66419952908517    2.49484905969376
C         0.90586141967522   -0.32902683255196    3.61407512220529
N         1.17752379542131   -1.08676322159052    4.62704519506987
O         1.38670092258364    0.90901883809068    3.75487183830274
C         1.23756043721004    1.76541006625222    2.60646009695183
C         2.52296705895195    2.00424097568544    1.79526545153447
C         2.43457357928397    1.05070118822325    0.57778903956178
C         3.79164013743369    1.72762785320407    2.64655061490174
N         3.72587770316329    2.02270570108208    3.98865099793501
N         4.82679947938049    1.19933065613258    2.08663338133514
C         6.03968670853827    0.92131840768079    2.87027131648269
C         7.21436707332371    0.52104531400137    1.96263481332292
N         7.45199412031893    1.62999157612307    1.03588602366209
H         3.73416673413773   -1.99055312675006   -0.16417408591025
H         4.61208746516559   -0.65692326846022    0.37529653434828
H         3.61523979396021   -0.51750610160412   -1.19439561674800
H         3.00715566107434   -0.81810381094044    1.77066262114916
H         1.23967785575022   -2.16132640244854    0.96061499889980
H         1.13281842575079   -1.19968728993316   -0.54468360376652
H        -0.24064582858161   -1.74420581134468    2.56094181217437
H        -0.92408676566810   -0.04023502684450    2.73257603830184
H         0.86410396590148   -2.05989432581378    4.49116462482142
H         0.98255412305759    2.71068157638526    3.10702962697912
H         0.40428272266610    1.51850072934455    1.94651854578226
H         2.44592105534730    3.02549745670305    1.38094080151622
H         3.25784986191247    1.44250366158294   -0.03517770609321
H         1.52973211123041    1.32002338753646    0.01341208876020
H         2.81744147279852    2.05141729904613    4.45027411104816
H         4.40007796218907    1.52749479411851    4.55933451289821
H         5.80568771703957    0.16041646523588    3.62453171823048
H         6.29682324669520    1.80924097238103    3.46062005884742
H         7.08031011640627   -0.43284673361941    1.44040380439372
H         8.05274961885232    0.33883079610638    2.64264590306921
H         7.82742105938017    2.41864388232331    1.56829284634907
H         6.52344960716818    1.89253600378623    0.71449413391299
