39
 energy: -54.523468039197 gnorm: 0.117411997176 xtb: 6.4.1 (79825abcba525fcdf90b791dcacef51065a7a4e7)
C         2.51415292861501   -2.62084636758600    0.88069518446506
C         2.05974231019209   -1.19514580143004    1.20998086940838
C         0.60855860607203   -1.14638173400569    0.70799194563756
O        -0.02760995059226    0.11212964358251    0.90813492539513
C        -0.55826707691495    0.35446918192748    2.19542288055968
C         0.30308698817814    0.42516117123705    3.44240183341414
N        -0.00490671552114   -0.12385648505117    4.57279680056871
O         1.51229826590176    0.99225502148911    3.44273535545465
C         1.97588009527325    1.70311180915520    2.27900305942253
C         3.20539402781907    1.17159213053577    1.52194994537457
C         2.90247767702768   -0.04490451578095    0.61218189227087
C         4.49103688518807    0.85344031616894    2.33227979346884
N         4.64210950537990   -0.36673542900277    2.94951334913668
N         5.43869429988731    1.72830429475658    2.30547443442047
C         6.69401977378031    1.59308450863316    3.05936316073056
C         7.45401596785383    2.87070275622966    2.66694255233845
N         7.54795596484994    3.00128100045836    1.21118970763061
H         1.93140679361115   -3.47135943155978    1.24840215918763
H         3.51557308367762   -2.87133193512426    1.24729782813499
H         2.53851478750080   -2.59940180960002   -0.20690928023096
H         2.01211185437278   -1.08870596063284    2.30620138414970
H        -0.04684172409967   -1.89884953619213    1.14075143926326
H         0.65028772151426   -1.31819255464703   -0.37503633739568
H        -1.42427258491880   -0.27477447944884    2.43366789616770
H        -0.97800125685651    1.34571590339164    2.02168557316303
H        -0.92687029059124   -0.58019963464903    4.64637512889539
H         2.19188101369631    2.73583556686266    2.58877964488407
H         1.25469428529897    1.58759751175151    1.46820942997104
H         3.45303997225826    1.95725671543716    0.78576488001009
H         3.75389944734412   -0.42118289902116    0.02864374287414
H         2.22810063387720    0.34655356161578   -0.16355649978689
H         3.79888931650832   -0.80515764932425    3.31821689370890
H         5.38616004020740   -0.41727090285803    3.63456405337357
H         7.29877477188799    0.71002407237807    2.82038261560817
H         6.52314727184478    1.53957490942694    4.14147989506618
H         8.48443477591940    2.86838224890009    3.03955257633747
H         7.01688305444426    3.80037693068575    3.04525888873450
H         6.60147730879303    2.79082086812194    0.88521492601854
H         8.04771791577826    2.17223733096924    0.89919319672125
