39
 energy: -54.520520003094 gnorm: 0.123106158601 xtb: 6.4.1 (79825abcba525fcdf90b791dcacef51065a7a4e7)
C         3.54490311150526   -1.54611748413532   -0.00510282929748
C         2.59297563330321   -0.62204356442412    0.76135762109846
C         1.14187925884467   -1.02872248984427    0.46263288463811
O         0.11379554572329   -0.41506506055929    1.23405165721765
C        -0.02991186482650   -0.73942518118682    2.60210660362983
C         0.81780592732706    0.02615499006597    3.60067863592952
N         1.12427230847463   -0.43666382849704    4.76941740613067
O         1.20231425261301    1.29698697420446    3.45601770154116
C         1.29589455987314    1.95051002858091    2.17592057778580
C         2.69030093985701    1.90778006200905    1.52695826590589
C         2.90093453306072    0.85250590916672    0.41280825568180
C         3.77157124560582    1.74376560658011    2.62908639334834
N         3.56299380941865    2.39916902594886    3.82054385369234
N         4.89339009702262    1.28810382824889    2.18405278674082
C         5.98625860399676    1.04361804619837    3.13712140271851
C         7.33396643694527    1.17585667857863    2.40904649118543
N         7.49424341699249    0.39909162688089    1.17777110009711
H         3.32924153332946   -2.58651637864731    0.25802103926164
H         4.55016794608123   -1.21845890571316    0.28136760852220
H         3.38741847116771   -1.47094707145941   -1.07910693969693
H         2.83188056911853   -0.72565500095415    1.83256563098147
H         1.18870314435284   -2.06570732480988    0.78745303360293
H         0.88378657677765   -0.89688112805857   -0.59576993921167
H        -0.05259880171182   -1.79503705466560    2.89848919178193
H        -1.02062534131938   -0.40338218738906    2.90950435187291
H         0.73026446893648   -1.38977771422175    4.76604002855823
H         1.13310903433362    2.99592196480149    2.47550535973895
H         0.58934797100546    1.50659184968861    1.47266573305684
H         2.94437425115516    2.90683200374381    1.12958216548501
H         3.97193748938801    0.87532566384250    0.16897808984458
H         2.26121524847726    1.23408293468051   -0.39648283554348
H         2.57704798338643    2.41426531346807    4.07911603795791
H         4.14162884782698    2.04203691194366    4.57094218287675
H         5.98804049820319    0.01800835666873    3.52539661083240
H         5.92528106296808    1.82587924856791    3.90353282603019
H         8.07970502514079    0.75991241465655    3.09568385068481
H         7.39604021277203    2.23288994148216    2.13096370884231
H         6.89554969569315    0.87698271855604    0.49986195848241
H         6.98553346020248   -0.47603127515311    1.27672220975407
