39
 energy: -54.521554029201 gnorm: 0.121629478204 xtb: 6.4.1 (79825abcba525fcdf90b791dcacef51065a7a4e7)
C         3.35378533256869   -0.86185577646212   -0.45487808978450
C         2.39178288333041   -0.27721041533453    0.58448771253857
C         1.01880273523306   -0.93978647971136    0.39416318789846
O        -0.00516771973967   -0.32035627246550    1.16643855538364
C         0.08609743138984   -0.57279841340506    2.55401893257613
C         1.16628591026374   -0.25321478329555    3.57035733719727
N         1.84263532956174   -1.17115653308102    4.18191898010003
O         1.52555982166924    1.01157465561911    3.80491508418999
C         1.46524556389821    1.99571846092189    2.75500009519150
C         2.59078069474781    2.09273210470817    1.71043984024376
C         2.26188765285524    1.25744136991187    0.44813279505631
C         4.01170388711705    1.81709326795194    2.27234119320944
N         4.21600868720751    1.88609150795106    3.63106406888211
N         4.89062749896859    1.54429659312188    1.36833048670769
C         6.32781712480757    1.41746879540731    1.65271639296037
C         6.55523394991697    0.15626815891602    2.50215801881056
N         6.78173938179609    0.38914367142115    3.93028827524491
H         3.52734178120607   -1.94235042281171   -0.43072381394905
H         4.34567119848031   -0.40007602119180   -0.40098250515333
H         2.86040161227104   -0.61590120412259   -1.39296960627712
H         2.76661000055134   -0.58449050700908    1.57462966787589
H         0.88569947556212   -1.96124293292489    0.74337429597110
H         0.72328959003596   -0.80583607646794   -0.65414011016375
H        -0.02331377716667   -1.65681763264278    2.67894015049550
H        -0.79654227104183   -0.15207539859596    3.03658579057420
H         1.39593068656202   -2.07323645278477    3.95744972630469
H         1.45314886265386    2.88811997156933    3.39734696910949
H         0.51657750078119    1.84533139859726    2.23707012353183
H         2.47823317482732    3.16445660569159    1.46691272432420
H         2.99566484405412    1.50610545067689   -0.33081421517394
H         1.24739778349495    1.51559442457232    0.11055143926194
H         3.43586655687860    1.99644968514549    4.27788395364748
H         5.01936229105315    1.33180922993047    3.90097821893112
H         6.62936226605177    2.26471909534252    2.28030981649733
H         6.81294395897436    1.34725446175685    0.67151344599646
H         7.42316096175877   -0.34045151825041    2.05429777322800
H         5.69330378400309   -0.51848821323116    2.51897266362857
H         7.28036926764754    1.27670666277938    4.03016342077759
H         7.38564091503546   -0.36293008301572    4.25294171490824
