39
 energy: -54.522548501844 gnorm: 0.110853294203 xtb: 6.4.1 (79825abcba525fcdf90b791dcacef51065a7a4e7)
C         3.64618579585423   -1.42391360808640    0.60340655675231
C         2.46213521944598   -0.58849116561488    1.10103470119469
C         1.14867570473801   -1.10592275610413    0.49490467364527
O        -0.04284326518410   -0.46227333946845    0.93605826305079
C        -0.49860889973611   -0.50253173248002    2.27325406987193
C         0.42506428172607   -0.30214310954169    3.46008045581019
N         0.65862246744518   -1.22665882435041    4.33460576433633
O         1.10461406646364    0.82028042648913    3.70940937637977
C         1.33341232937882    1.78434412299485    2.66407169462559
C         2.71666812543063    1.76973608070988    1.99047158235277
C         2.86660337018059    0.86079329987440    0.74522349700201
C         4.03853540273191    1.63379814777702    2.79354095024413
N         4.02806603413604    1.67545632381433    4.16859878960031
N         5.10168433862042    1.42737092937300    2.09263991755642
C         6.38179202940177    1.27165260573159    2.79942897364708
C         7.50091069305637    1.10028513997479    1.75918710367405
N         7.26834517657647    1.83024259494247    0.51092145045077
H         3.43012992887630   -2.49164913384679    0.71033954924236
H         4.63389440544106   -1.17255020034630    1.00494234538590
H         3.70651977731234   -1.24817466156787   -0.46870000312177
H         2.51380696567986   -0.70889551880103    2.19562610680571
H         1.10815197336834   -2.15030382321714    0.79600960436712
H         1.09853605563506   -0.98885259979105   -0.59504538413521
H        -0.92330642505813   -1.49742503894642    2.45351253279514
H        -1.26823331419411    0.26947339042993    2.24839798862048
H        -0.00197484567312   -2.00898001825556    4.21105656184448
H         1.20495176454333    2.76003194502076    3.15465038438651
H         0.56616380837005    1.81489265654912    1.88867804640456
H         2.73627411532220    2.78734094866542    1.56074869694608
H         3.89708140655332    0.95037435973889    0.37493780483879
H         2.25348885497849    1.36137547829745   -0.01851857512439
H         3.28258977926592    1.46711762703967    4.83195146460624
H         4.97129130277275    1.62261642926147    4.53328159308849
H         6.41700054914878    0.38046342277611    3.43753417682742
H         6.60758139290836    2.18805679028892    3.35823113636853
H         7.59185533414415    0.03086290079061    1.53857050533967
H         8.44786634522599    1.46621236857876    2.16891233270383
H         7.26406291507302    2.83653854047571    0.69456513794971
H         6.33598217721108    1.68835085305401    0.13015484600047
