39
 energy: -54.521710319035 gnorm: 0.110397201038 xtb: 6.4.1 (79825abcba525fcdf90b791dcacef51065a7a4e7)
C         2.91289285483024   -2.56213473203129    0.90325453663671
C         2.20653899802450   -1.23320019800526    1.19054780682746
C         0.71731329096281   -1.33324560119936    0.82653863890029
O         0.07364260101149   -0.08809258240300    1.07932417368476
C        -0.33039883336258    0.11585644182843    2.41820093935533
C         0.64127018157480    0.73894705267809    3.40283387923620
N         0.55801340921056    0.50556990849546    4.67274594689703
O         1.60491747298239    1.59801225579858    3.06052075155094
C         2.00047109188538    1.92221603911213    1.71407076599057
C         3.20143013297133    1.09941609778907    1.21602987561341
C         2.83931550483808   -0.11691011255543    0.32792860170915
C         4.32973382730754    0.81118286532504    2.24295975879379
N         4.05795758197222    0.60054919627559    3.57502589002710
N         5.49612040990934    1.02403446600025    1.73463246887803
C         6.66498756662398    0.80533745531682    2.59973122075582
C         7.16242578726407    2.22873693288846    2.90037334314807
N         6.81100578320480    3.17710964184156    1.84104103782313
H         2.48363914914581   -3.27571997025067    1.61368491317998
H         3.97022623945482   -2.57413157701269    1.18941015466711
H         2.79999776690390   -2.87965750985473   -0.13133273579211
H         2.22942276985306   -0.91997618080886    2.24727131404223
H         0.23386360946284   -2.09278448755752    1.43679698686081
H         0.47779314357204   -1.59865291165451   -0.21095815296238
H        -0.47010879765127   -0.88068122188662    2.85416837197141
H        -1.23857794169977    0.71646593073358    2.47659975246928
H        -0.26648187492231   -0.07437837434548    4.89079910673206
H         2.32975178468532    2.93495698548929    1.98805305305293
H         1.19743760815737    1.96912038923197    0.97665907049627
H         3.75242113993960    1.75908791269307    0.52190609358816
H         3.74291243845389   -0.52333892777987   -0.14678124285080
H         2.08831307295340    0.22129109480129   -0.40104956224675
H         3.11384737871142    0.64294575515888    3.95717125750770
H         4.76236340085681    0.50695583694513    4.29649121637413
H         7.44532308784961    0.32135586907350    2.00016942219913
H         6.49483199999541    0.18177297214686    3.48587553032119
H         8.23805647183492    2.15130889519435    3.09435805019422
H         6.53814070905910    2.51950583939319    3.75138691103518
H         5.79338619058999    3.15658368091979    1.73904142251957
H         7.18329613692498    2.95134211925481    0.92188590707320
