39
 energy: -54.518937319311 gnorm: 0.116685356421 xtb: 6.4.1 (79825abcba525fcdf90b791dcacef51065a7a4e7)
C         3.75492160807676   -1.29569619109457    0.22823425806709
C         2.63558490740377   -0.51386163468764    0.92347540599400
C         1.22969134691419   -1.12825966937297    0.84420811764617
O         0.16360728606062   -0.23209165506012    1.14248011971186
C        -0.48817910723441   -0.22122368729447    2.39647058252538
C         0.61066839697075   -0.22441551994431    3.44261044944706
N         0.71865795170066   -1.19579985580409    4.29044533092415
O         1.48524726890734    0.78330508136511    3.50090639296495
C         1.37306490306597    1.91262727077915    2.61403275338583
C         2.62132619662570    2.00723437530362    1.71947121528753
C         2.54267551779370    0.98557746420578    0.55786389754444
C         4.05169434491570    1.94423536666495    2.32014641825821
N         4.15006912011983    1.19181818166747    3.46767413240208
N         5.04806126238263    2.56518939621917    1.78551649791838
C         6.41282537615591    2.25676938287226    2.23803242580167
C         6.73715369689162    0.80769613461816    1.83941682778574
N         7.18550088840788   -0.05998914592055    2.93083736694887
H         3.50968363560141   -2.34090814963944    0.44169210346132
H         4.74124265439144   -1.04466671421436    0.63337354615524
H         3.86494399411706   -0.95949327601782   -0.80074558219814
H         2.87079451622596   -0.55055761685902    1.99987094865755
H         1.06123473149219   -2.03793692391266    1.41617649328001
H         0.99145699846287   -1.35724084691281   -0.20222513431697
H        -1.14558298293597   -1.07604152784618    2.59592082811171
H        -1.12556957091909    0.65963881979889    2.47860535325634
H         0.01245556191965   -1.94646701908047    4.25227911116819
H         1.23318816403213    2.77383629638027    3.28327844647260
H         0.53843430377081    1.84757843129685    1.91403330042505
H         2.57395266660925    3.00621588699696    1.25004869724585
H         3.38424612440976    1.12657273591706   -0.13416246287351
H         1.59049193907422    1.05841508604291    0.01212129793462
H         3.31802941224845    0.75025735683299    3.85743123516550
H         5.07097452005643    0.98965880706668    3.83716612441651
H         6.53158595103424    2.45429312530908    3.31018742530388
H         7.04601302190842    2.94224839457036    1.66163911307277
H         7.50016393460693    0.81586004455101    1.05306114315482
H         5.91559434561349    0.35099574436988    1.27819718253154
H         8.08251782644353    0.25021198909434    3.31229606672615
H         7.42132905345445   -1.01288283651930    2.66476232812428
