39
 energy: -54.527846797531 gnorm: 0.112135195702 xtb: 6.4.1 (79825abcba525fcdf90b791dcacef51065a7a4e7)
C         2.56567617231055   -2.70801218917380    1.18943966243321
C         2.09406983727949   -1.25828872365821    1.34250664726714
C         0.59602790652781   -1.39649740078135    1.03094017083114
O        -0.05539630163590   -0.13831314417693    0.88520961800885
C        -0.52836110039597    0.35872406462408    2.12080420729679
C         0.49884513101009    0.51421304477696    3.22649635982467
N         0.52055194276831   -0.17498755637477    4.32130436972182
O         1.45130301638489    1.44774254625071    3.15484413263279
C         2.04177521530733    1.92426157045207    1.93060130159079
C         3.19429971440120    1.09199769103394    1.34206822231332
C         2.80946511207793   -0.16251741188209    0.51902845411752
C         4.36712059545089    0.92978897261891    2.34651438753617
N         4.19473141661569    0.16288730737468    3.47557277579333
N         5.47015488860398    1.38568883958610    1.85699345038750
C         6.72797271292879    1.14288595824486    2.57908467392548
C         7.42889574310159    2.49771889441869    2.77151947658792
N         7.44644726037222    3.44054496644527    1.65086668270124
H         1.95436837804964   -3.30223017165950    1.87601210558917
H         3.62214216976321   -2.85871156503545    1.43672924152162
H         2.42920163900813   -3.09214511899857    0.18060200076368
H         2.17510975729208   -1.04289135112647    2.42062260083184
H         0.02492272925769   -1.90689151028928    1.80319329414571
H         0.36465844048398   -1.84456633946652    0.05630540550190
H        -1.40392268750936   -0.22258185347466    2.43409180452284
H        -0.82420970184229    1.38821519164966    1.91695843380509
H        -0.31664620779929   -0.75703100187459    4.47623772473309
H         2.42654375172302    2.84798780251168    2.38647333265785
H         1.29304233505762    1.98952382281733    1.13941313068494
H         3.71780713194881    1.80351550166617    0.67855620686671
H         3.70587422571963   -0.53800622850994    0.00670037088376
H         2.12116637847034    0.25846156223652   -0.22851112214250
H         3.29824847480997    0.17460893543501    3.96070942250573
H         4.99070110943106   -0.03225479204986    4.07039316897774
H         7.29147091628130    0.52457996642943    1.86999827206327
H         6.67163533931116    0.66988179714543    3.56707783090541
H         8.46006343366474    2.49778344831351    3.14205924917465
H         6.81256544238850    3.03005483866408    3.50313270051027
H         6.50727585487923    3.66094908757081    1.31064033866173
H         7.87851783090617    3.11838539573027    0.78834394791560
