39
 energy: -54.518923680664 gnorm: 0.123872853171 xtb: 6.4.1 (79825abcba525fcdf90b791dcacef51065a7a4e7)
C         3.31682504037616   -1.44452580864170    0.08030794147125
C         2.41663081067408   -0.57750743839452    0.96657521532031
C         1.00632968527685   -1.07048645854261    0.60834710583252
O         0.02801988737427   -0.15800644272054    1.09712996824314
C        -0.48890272250504   -0.53277278620231    2.35799352141313
C         0.64606703932190   -0.42996720744989    3.35957191892851
N         1.16433414173311   -1.42211081546134    4.00851223026730
O         1.35834021169461    0.66692813642008    3.63026539011299
C         1.43399281846980    1.84045730010305    2.79863787571315
C         2.70177959850411    1.85900488812993    1.92701881393734
C         2.63525215123849    0.92807331796452    0.69079842550052
C         4.01896224737311    1.52754019242612    2.67927785086058
N         4.13524006824070    0.61283449646034    3.70026855102868
N         4.86628481740017    2.42518922265395    2.30453689630807
C         6.27872320137423    2.46766862345432    2.71158474431026
C         7.22109064253645    1.26592141350356    2.53369780261780
N         7.28188854586310    1.00252045586409    1.09424815390772
H         2.94759028101278   -2.47437567780754    0.04496826449265
H         4.36220242963915   -1.32948611078171    0.38679583751128
H         3.33129719565900   -1.11617789113566   -0.95695530418268
H         2.74083394625389   -0.80310734365489    1.99579556442051
H         0.86783310447604   -2.09888853741937    0.93430112841750
H         0.80277515024024   -0.97890464969766   -0.46607779191813
H        -0.88053971278091   -1.55511492057015    2.29387782868840
H        -1.31330736810704    0.14694775423942    2.57540659275918
H         0.48662256361452   -2.19841467799239    3.96681093654104
H         1.58253422369968    2.68331020031341    3.48905132881944
H         0.58623530327424    2.02418291990852    2.13652692504479
H         2.89501176298140    2.90372083081903    1.62404069013160
H         3.62920511316629    1.08038274326480    0.24821443178487
H         1.80626383011971    1.23541918858765    0.03649669717406
H         3.41695384474805    0.01259511876797    4.10394442996590
H         4.91228486961009    0.87557312153007    4.29409453178632
H         6.38552705696768    2.80201021289840    3.75054801492431
H         6.64812426507604    3.30193289563425    2.10282921299731
H         6.79391329249304    0.32789979476668    2.90550619880108
H         8.20537956160702    1.49184750116666    2.95635040971281
H         8.07187558515837    0.39772352197756    0.85651717745677
H         7.43364105749299    1.82292752234204    0.51259477351872
