39
 energy: -54.530992960230 gnorm: 0.102929657874 xtb: 6.4.1 (79825abcba525fcdf90b791dcacef51065a7a4e7)
C         3.42158685110390   -1.50724997225167    0.19518674072311
C         2.44158204053600   -0.63657739027433    0.98831977921322
C         1.04154543215324   -1.15887607910862    0.63137926426278
O        -0.02204445201182   -0.35101037104056    1.12609946458564
C        -0.45702169542828   -0.68238970939236    2.42933321568047
C         0.48772838434993   -0.34886608467455    3.56867244630027
N         0.41713382155477   -1.00270845020717    4.68293444615154
O         1.40141242855041    0.62509856297901    3.54965317214251
C         1.44886997015985    1.74490642540243    2.64506682429613
C         2.75469423341827    1.76921834564056    1.83169173785629
C         2.66012785437202    0.84244545504607    0.59417424797788
C         4.05642000872497    1.59280782757313    2.65941267728558
N         3.95595047492898    1.58954200344441    4.03146379618727
N         5.15977444101142    1.56388660593255    1.99163077816631
C         6.38957531613286    1.30504401361381    2.75521769782574
C         7.60110219508919    1.18347370656842    1.81643134336935
N         7.69979704852414    2.37316890346979    0.96791710607441
H         3.34454128029033   -2.55173290592055    0.51345287995508
H         4.42656840165790   -1.07155637783391    0.20807178431580
H         3.16655126691013   -1.61567865958216   -0.85701899505867
H         2.74055071511950   -0.78615719340714    2.03881543975222
H         0.87526572932892   -2.18837915960636    0.94043044088127
H         0.94598211284288   -1.12181724517656   -0.46118873408289
H        -0.73418715312502   -1.74326262396319    2.44937696063534
H        -1.41736923274381   -0.17289927468925    2.51349719871402
H        -0.25400716380523   -1.76220712584890    4.87375162779826
H         1.39588264105328    2.56693695276421    3.37348596614237
H         0.55898966177451    1.64594096205755    2.02124177869728
H         2.92083503829860    2.79007556076676    1.44334448114959
H         3.63519748764738    0.87155095064914    0.08878992103424
H         1.88124234751684    1.10432858119596   -0.13695396227856
H         3.02590448135472    1.30442632608786    4.33625904657063
H         4.64200415798015    1.16952691670933    4.64658749615449
H         6.28060087936898    0.40157970035633    3.36719225333071
H         6.54308517350127    2.17678953867199    3.40293043184522
H         7.54953677790588    0.31589963324409    1.14915121464966
H         8.50310148045700    1.13874950815985    2.43522011340002
H         7.27700274098386    3.20489351889034    1.38726661316945
H         7.20597748032526    2.33505722365551    0.07960017516167
