39
 energy: -54.530221393430 gnorm: 0.103319648106 xtb: 6.4.1 (79825abcba525fcdf90b791dcacef51065a7a4e7)
C         3.18601926774088   -0.97683028806660   -0.56998616965006
C         2.32623026289539   -0.21704768314692    0.44541199218885
C         0.88183525762322   -0.72885559417511    0.33549986140273
O         0.03332545218036   -0.11561821468417    1.30120662021685
C         0.00980894518261   -0.76797783299190    2.55472550029884
C         1.19283526483883   -0.41943870499263    3.43838483401386
N         1.91383766332956   -1.32707966128711    4.01320365451165
O         1.60574802700738    0.83305811555737    3.64943500956383
C         1.31208180496362    1.84682029283546    2.66936117338567
C         2.50089200946320    2.03186276389216    1.71028001087456
C         2.31268623311244    1.32576110840195    0.34452038656311
C         3.88417719970271    1.66767536325289    2.31411957677514
N         4.13899391317184    2.11604235971438    3.58952717390546
N         4.85604486918640    1.36119708230066    1.52310479884774
C         6.27939296986746    1.43293363979164    1.88560815271213
C         6.89786401896899    0.30040536255317    2.72153265389771
N         6.98617816601334    0.60416508972762    4.15157544110864
H         3.23705760843105   -2.04966109657088   -0.35879172871383
H         4.21607164612232   -0.60409772981666   -0.57672270933854
H         2.73535313997753   -0.76376023229431   -1.53716662291739
H         2.66654507818484   -0.48942872599039    1.45797898051487
H         0.98238621629065   -1.80258443411597    0.47704153730960
H         0.46540402591139   -0.51649498755751   -0.65732365383953
H        -0.03059441964194   -1.86091414734023    2.47390737878254
H        -0.91764504080154   -0.51051184553135    3.06704555708341
H         1.66053571467519   -2.32600308783015    3.97234082001574
H         1.13865778869150    2.81025331797216    3.17021764311851
H         0.45244726323759    1.77799817035571    2.00068278604529
H         2.54464289845175    3.11387594440871    1.49142130167954
H         3.14243068225905    1.66035824578644   -0.29312382201588
H         1.38659644710908    1.70624840083737   -0.11087064382994
H         3.33228443698227    2.30135768111539    4.18455212211051
H         4.99287597167498    1.73214170713684    3.97548730403308
H         6.46790270117772    2.40017761678431    2.36679336484454
H         6.73258824779213    1.36219669351440    0.88929111389671
H         7.91505610227315    0.07079478257297    2.38507199479802
H         6.35445042537122   -0.63359652069060    2.54590621431444
H         7.82191084878749    1.16423397910529    4.33663918994701
H         7.04802269784537   -0.28526976523453    4.64096089939537
