39
 energy: -54.528909439345 gnorm: 0.109927739751 xtb: 6.4.1 (79825abcba525fcdf90b791dcacef51065a7a4e7)
C         3.00335297472054   -2.32826662076915    0.63408258515831
C         2.25131030813266   -1.09823726939574    1.15273448132214
C         0.74567294340381   -1.23411468609838    0.87905876944406
O        -0.08956540605139   -0.10525609269724    1.11712113028287
C        -0.59251776992150    0.05967288954383    2.42756877513964
C         0.54962718329514    0.27766720914894    3.40218048314424
N         0.96995613426770   -0.52719931068872    4.32391074596898
O         1.16320950007011    1.45755109427011    3.27898088570709
C         1.74939915104147    2.04213798622023    2.10036383633494
C         2.97443041552067    1.46571033225011    1.36935314205253
C         2.72931607323894    0.21434745172695    0.48997256677170
C         4.07715951936383    1.11007795003095    2.40291336853449
N         3.79305402701737    0.38615764955261    3.53774927188530
N         5.22232629005511    1.63060642634904    2.11690066331110
C         6.37416820540738    1.51478880027124    3.02371990103719
C         7.55158634069517    2.38144332504272    2.54780709644838
N         8.13662918706941    1.97282188690748    1.26880548193452
H         2.84917430629832   -3.19108199577666    1.28979023031828
H         4.08812227512713   -2.21919553221820    0.52749034983313
H         2.60576748655906   -2.56469763928816   -0.35078440523892
H         2.36172545454667   -0.93946131224594    2.23804374654027
H         0.35946259774572   -2.07091873372329    1.45667344493845
H         0.63933501345101   -1.34426860148535   -0.20757313382031
H        -1.17237365908125   -0.81163413723222    2.75508212679188
H        -1.25800857834667    0.92316360181937    2.40665847530662
H         0.42944341426309   -1.38657814218636    4.50555236654959
H         2.06444296909304    2.99962074754185    2.53980716330494
H         0.99395889306194    2.12329381307243    1.31706149436593
H         3.22511612255846    2.33600862450233    0.73665783442578
H         3.65865388323007   -0.05766188440624   -0.02902972793499
H         1.97846056053058    0.51176297194203   -0.25672273288928
H         2.80582819706475    0.50332094054649    3.76321449552059
H         4.50779421478782    0.37594437858717    4.25503697905522
H         6.58272000505636    0.44044947259172    3.09398513276486
H         6.07335825060757    1.90529815482539    4.00354291215001
H         8.33193104367001    2.37017652070897    3.31692460221234
H         7.19810981102662    3.41021028524163    2.42453752088565
H         7.53623637188146    2.23780319864114    0.48414743996768
H         8.06205003521288    0.96019940068124    1.21006123977181
