39
 energy: -54.525393579777 gnorm: 0.106175275314 xtb: 6.4.1 (79825abcba525fcdf90b791dcacef51065a7a4e7)
C         3.41276810880271   -1.97837921241047    0.60807439914823
C         2.43220027194086   -0.92726973427326    1.13835335040817
C         0.99901320600928   -1.24781463269000    0.68720951283092
O         0.07922342726643   -0.22924292088856    1.06815170773633
C        -0.51626086140913   -0.27439425417447    2.34908711343763
C         0.49902684694001   -0.16886321929654    3.47155702961104
N         0.60029101252530   -0.99184334955218    4.46479543552811
O         1.16486763214858    0.98592019554321    3.55473601287078
C         1.40016805350254    1.79526899556169    2.38679484549728
C         2.79282915235592    1.59124265561953    1.76533252482348
C         2.80934421628774    0.49691252683164    0.66921703802637
C         4.03678824585880    1.32042822105447    2.65412829665696
N         3.96978441389298    1.61278769371998    3.99676207522875
N         5.06577952805074    1.09625295536864    1.90908973156876
C         6.46607027618922    0.84762680486779    2.28304892637007
C         7.40516601627323    1.71389789681438    1.42773021360934
N         7.64058715101948    3.08693946877962    1.87986455969031
H         3.16247031748346   -3.01545263315171    0.85303089968749
H         4.43529066297864   -1.81460139849364    0.96529604111564
H         3.47764946821232   -1.94748311713581   -0.47763858258860
H         2.42710910221763   -1.08523151329410    2.22937107460558
H         0.64715905495405   -2.21584794121515    1.03670677228889
H         1.01271052109368   -1.31544760224467   -0.40798394097954
H        -0.95765051342658   -1.27175603627671    2.46362290947825
H        -1.29332652159269    0.49046541382584    2.33959360207478
H        -0.07111811977720   -1.77337879262744    4.41905929132774
H         1.45582678765675    2.82141294206295    2.77803262744932
H         0.59590204124865    1.57762772663053    1.68207697605750
H         2.99307323366769    2.53046204475350    1.21913196014770
H         3.85460522528359    0.37098164711464    0.35522327790855
H         2.15360627751339    0.89621237463322   -0.11841311745261
H         3.06717807592338    1.33619587241695    4.38143778190653
H         4.78120074336849    1.57746611401129    4.60158883976304
H         6.73702158276942   -0.20885912850326    2.16877338694418
H         6.74732653327615    1.04000278003112    3.32560525820089
H         7.04861700370449    1.78025555836686    0.39376890338072
H         8.40845696637201    1.28057963797704    1.49211232941740
H         7.50375648584295    3.07583428578711    2.89353556849655
H         7.04173741121326    3.77935716691996    1.43674611721816
