39
 energy: -54.517068804308 gnorm: 0.108370889002 xtb: 6.4.1 (79825abcba525fcdf90b791dcacef51065a7a4e7)
C         3.20670690429184   -0.84025519414762   -0.58216252569800
C         2.44990648420242   -0.15358656467519    0.55945015072897
C         1.13538345282042   -0.94875398861186    0.56600136740702
O         0.11247503225550   -0.30309516980803    1.31793325916923
C        -0.02086558891761   -0.73445582938644    2.65718078540825
C         1.25433711968830   -0.53196371713713    3.45388624337556
N         1.83269693847084   -1.54126806603588    4.02034707384213
O         1.80853810398700    0.68126233873176    3.52266984248687
C         1.58821105773454    1.86363720410471    2.73024068895283
C         2.57010731805830    2.18403321566366    1.58981391956506
C         2.25468499730073    1.36079165254713    0.31620393322229
C         3.99248759380436    2.01993208085269    2.19034515232798
N         4.20212509992793    2.49537503966748    3.46417212919735
N         4.97104636972227    1.61955663640361    1.45123601987210
C         6.33575641703735    1.52429718504032    1.99064938034537
C         6.50941306436415    0.13327278066453    2.62214839761182
N         6.57443437467546    0.31247344231764    4.07430234885469
H         3.21848952271585   -1.90103858821335   -0.31239648650441
H         4.21914714096560   -0.45856991443780   -0.75322965107857
H         2.67508277590173   -0.68165697887545   -1.51819630274479
H         3.10753968550940   -0.32312286524341    1.42782422314811
H         1.31512971147186   -1.96421721947305    0.91178145552563
H         0.75202440097690   -0.96648462193653   -0.46207061287098
H        -0.26133226770975   -1.78294844096386    2.87051808893854
H        -0.89836596746627   -0.19321788180255    3.01212589620772
H         1.41607090977291   -2.44688116764576    3.75583370360244
H         1.45298141491161    2.69996538211713    3.43124311218815
H         0.60093730458311    1.88619767516780    2.26589128127850
H         2.30435346967888    3.15370355712398    1.13190551640201
H         3.04054210546278    1.63937829371434   -0.39922553512053
H         1.24314620267620    1.57309908721201   -0.05997246303427
H         3.40980385138594    2.75664691063097    4.04995424234809
H         4.87838280254807    1.96405099796741    3.99880264199626
H         6.53539822469038    2.30748258809887    2.73186447604234
H         6.90059319903826    1.57657966836085    1.05189314216526
H         7.37648297617138   -0.38425867365337    2.19675740559799
H         5.61199017967462   -0.43538062303445    2.35801210973603
H         7.51517422630883    0.59109608510500    4.36370315385390
H         6.42761269658457   -0.60357788320082    4.49108838524637
