39
 energy: -54.523981108358 gnorm: 0.097720689763 xtb: 6.4.1 (79825abcba525fcdf90b791dcacef51065a7a4e7)
C         2.94724641944516   -1.52511844530126   -0.26573868228272
C         2.22600025137445   -0.65732016207859    0.77073142421003
C         0.73926834435465   -0.97686174299791    0.55203904419255
O        -0.26232093730262   -0.15535682312309    1.14412610630650
C        -0.32873291715253   -0.29138564349035    2.54930270689100
C         0.89997395555680   -0.16213231281425    3.42990340893033
N         1.42800247907568   -1.14803997687631    4.08047637810556
O         1.47826144966005    1.02744889036565    3.61501833806934
C         1.53486355984363    1.98427184765131    2.53994422396535
C         2.73503101760512    1.86069402589512    1.58512817747505
C         2.51649152844351    0.82748186576655    0.45198501557942
C         4.12201980059048    1.66793476477908    2.25582824590004
N         4.15277305500523    1.13783591898487    3.52495334048136
N         5.14574706890229    2.14488676011407    1.63240273419105
C         6.40641084275987    2.24124566584606    2.38334645349675
C         7.33049765724106    1.01609998350888    2.28859336853102
N         7.38203904986146    0.31431197683792    3.57308892019708
H         2.93662418848318   -2.60989887982033   -0.11975057970386
H         3.94973482662449   -1.17842059327574   -0.53923537014100
H         2.39683418845505   -1.27642528936228   -1.17079941579488
H         2.44579196348221   -0.95173314306012    1.81011109776425
H         0.48112682152985   -2.01048943113117    0.77116210313420
H         0.52998141711164   -0.82216604413320   -0.51401853165675
H        -0.84233029424132   -1.22750798979431    2.79943561179172
H        -1.03583999119537    0.50469066638920    2.78423581150786
H         1.04264387928468   -2.09231493117574    3.92710356815498
H         1.51512344733186    2.91037651982325    3.13246152119670
H         0.62223492138017    2.00393161298268    1.94197994901300
H         2.75071749441120    2.85833782916550    1.11075851304018
H         3.44111016286879    0.85659529472012   -0.14068185891493
H         1.72770059063056    1.22843905868689   -0.20134189340706
H         3.30091907879526    1.11674908295807    4.08448598778749
H         4.98535434699298    0.83811081699154    4.01732793901576
H         6.09269427187323    2.28347004046500    3.43331553306341
H         6.87673617387515    3.14948519583071    1.98719956018341
H         8.32774877136545    1.34400011134222    1.97462162500832
H         6.98587681312920    0.30374360971419    1.53209659064937
H         8.15716153145990    0.69050741854786    4.12448442203576
H         7.56520404331801   -0.68170364034278    3.47917027966065
