39
 energy: -54.520926397054 gnorm: 0.113369769461 xtb: 6.4.1 (79825abcba525fcdf90b791dcacef51065a7a4e7)
C         3.52126419967603   -1.35274469978442    0.28821152158038
C         2.43999032812274   -0.47249396901163    0.92346393523245
C         1.06229134734973   -0.89550240818960    0.39119115581135
O        -0.00203887098348   -0.20983756433972    1.04363534512121
C        -0.23841523913185   -0.53325117039046    2.39898236056423
C         0.97278708542244   -0.62313158792154    3.30826507993813
N         1.17395263255121   -1.67076008696267    4.04044005864983
O         1.64554008022976    0.48628399445405    3.62510556703958
C         1.40525451573921    1.65718378613485    2.82151682210456
C         2.61935544925812    1.96886147147376    1.92923711973276
C         2.73555614040390    1.02911654436636    0.70339977748153
C         3.87415382069820    1.85692683498281    2.83680767436243
N         3.73096486949135    2.25253768753702    4.14662371079337
N         4.99689240177305    1.63949671222295    2.23986352497562
C         6.26439941834462    1.54242253660038    2.97910449726384
C         7.23983648540938    0.80544982747947    2.04674711738851
N         7.27459538890199    1.34624106532209    0.68607507829751
H         3.10123456080908   -2.36123826192172    0.21972950910611
H         4.55693513088047   -1.33245555851253    0.64452165621348
H         3.57670990790988   -1.03557328255378   -0.75114640573888
H         2.43003288954620   -0.65961601890830    2.00982653257598
H         0.90322182587781   -1.97138168417039    0.40598388627773
H         0.86190031165857   -0.60048184371113   -0.64660305611022
H        -0.79605763554249   -1.47700349906279    2.43123584209973
H        -0.90725663860039    0.23385246615028    2.79030660898093
H         0.60450658296339   -2.48943400793193    3.77741178785919
H         1.20172572721090    2.47483416014046    3.52802951766990
H         0.55873983535663    1.46113476155555    2.16135282902795
H         2.58201836560468    3.01985328862172    1.59072871213778
H         3.80081460581017    1.12423094014817    0.45200588428950
H         2.13537799745871    1.43232280319685   -0.12545772926253
H         2.86230577347198    1.87361868407027    4.52216120815507
H         4.51752404111141    1.84238888724915    4.63505195068659
H         6.24186977272645    1.09067537757076    3.97813050304391
H         6.57862370054450    2.56093862326731    3.23780393105303
H         6.90655445994866   -0.23827371429988    2.03367830513240
H         8.26164610757131    0.69363586065620    2.42345023035990
H         6.88055371481999    2.27787308606133    0.83828483055547
H         6.64382883647770    0.79258089682565    0.11160905694290
