39
 energy: -54.523953375351 gnorm: 0.104755585472 xtb: 6.4.1 (79825abcba525fcdf90b791dcacef51065a7a4e7)
C         3.06268194351774   -1.86688760332436    0.12502406132943
C         2.23139686012484   -0.83635256288349    0.89606414750863
C         0.75182158195146   -1.18500669656430    0.67334857674200
O        -0.21193541545200   -0.29278488636300    1.22446671462266
C        -0.44651022128864   -0.36598102589992    2.61624710877426
C         0.75863835855099   -0.29858052099726    3.53546345521985
N         1.11572665837691   -1.22261276618264    4.36776484318848
O         1.50811798408737    0.80310665970409    3.62685853152643
C         1.56061802447898    1.83984221646620    2.62839898653615
C         2.75890987606041    1.63892172944065    1.68443145460993
C         2.58089176854682    0.62408610827058    0.52783362964282
C         4.14893967006321    1.52470743968594    2.36671064859669
N         4.12302566881197    0.66069781235708    3.43696524374977
N         5.08408622382708    2.28990208789021    1.91489412402463
C         6.27879221927820    2.56617584360289    2.72657451299005
C         7.24633512492673    1.38162254094440    2.56976018151248
N         7.97408928490426    1.58424944386832    1.31500603514234
H         2.68888673554593   -2.88580813281964    0.26733374929907
H         4.07716852119557   -1.61226614941537    0.45055093846471
H         2.96527617061912   -1.74710161941551   -0.95205544840995
H         2.52130182676982   -1.14644889749414    1.91345929304068
H         0.52712307716827   -2.11889568785557    1.18364270162923
H         0.45570260388820   -1.24948285947276   -0.38133948283341
H        -0.89625225062366   -1.34787847882090    2.80672884011591
H        -1.10592462388634    0.48662442690539    2.78107447510802
H         0.65569383673754   -2.11765110574522    4.14203084338659
H         1.62469216467919    2.74647305025198    3.24731038594867
H         0.69034687837855    1.90276393050689    1.97303053220722
H         2.85894789482639    2.62210821892543    1.19056655369746
H         3.56888370929389    0.66316740070484    0.04891212040579
H         1.78944578228877    1.08446501977856   -0.08164022393460
H         3.24358860637749    0.28048534725622    3.78511114859579
H         4.87302759100711    0.72956409275743    4.11388034478474
H         5.95762560125130    2.67997239197688    3.76894603894534
H         6.74440130737821    3.50972467313971    2.41679862085817
H         6.61562386900750    0.48896314799587    2.49250051431853
H         8.01165661465381    1.30378776335534    3.34868718050962
H         8.67332222601203    2.30944727024010    1.49259060265130
H         7.32225022255249    1.96966768945282    0.63605401247574
