39
 energy: -54.520997743194 gnorm: 0.107324154374 xtb: 6.4.1 (79825abcba525fcdf90b791dcacef51065a7a4e7)
C         3.36756284709878   -1.53817664461688    0.04069619463573
C         2.39616902130158   -0.67537248948065    0.85279422013269
C         0.94402624828634   -0.96390041922357    0.44250413311412
O         0.02111795393636   -0.13858074480218    1.14656822150513
C        -0.40852921275133   -0.58213331595051    2.41782748827535
C         0.63729554381051   -0.45698439542205    3.50983159243191
N         0.94456202013167   -1.40978830126403    4.32948107881154
O         1.16467595519537    0.75023679836048    3.72954573609134
C         1.38564180265818    1.77480070063298    2.74164836908217
C         2.69112067627793    1.69218750923482    1.93155762148375
C         2.65367609606029    0.83458333028911    0.64221156440699
C         3.99631309649824    1.47517055960538    2.74402852119855
N         3.81038816396775    1.88151301830650    4.04516140188000
N         5.11620048467467    1.23032759876197    2.15236626831508
C         6.38520496895861    1.28337998893310    2.89350572263627
C         7.61629640374819    1.11937553946752    1.98718738053399
N         7.55759406798767    2.07544266481719    0.87922464334187
H         3.33211782249786   -2.61364497182704    0.24140862075232
H         4.40282262782330   -1.21204995200701    0.18855225236153
H         3.04392457170764   -1.35707846291868   -0.98224004758205
H         2.67637384409649   -0.81121790090212    1.91030488183534
H         0.83750997258673   -2.04157862749668    0.54400352813894
H         0.73667875833306   -0.64966728553978   -0.58826019160287
H        -0.76261871174040   -1.61481592078581    2.31361107769220
H        -1.22929613458153    0.00299952512494    2.83363116849657
H         0.43610475017730   -2.29421075808945    4.17799580612565
H         1.29277551080419    2.75026095108144    3.24063676915538
H         0.48396234509516    1.70408470792332    2.13106487091505
H         2.91010202361289    2.70269644848787    1.54234732839713
H         3.60284083208048    0.90380245144749    0.09328876358269
H         1.98375628982302    1.21471507867849   -0.14296431552393
H         2.91072043411547    2.00849080312169    4.50738563743383
H         4.62921660387237    1.72266671000828    4.61939771016507
H         6.44603635452270    0.48642735888095    3.64437327835742
H         6.56936059475961    2.19735026785351    3.47124471311904
H         7.58063309292189    0.13111820919953    1.51529532852332
H         8.53945428897950    1.21674990827695    2.56753232225060
H         8.13342037880608    2.89095933346009    1.10223023365244
H         6.58977384990578    2.36081278389438    0.75153300031116
