39
 energy: -54.522486194438 gnorm: 0.105527903022 xtb: 6.4.1 (79825abcba525fcdf90b791dcacef51065a7a4e7)
C         3.74598920994451   -1.35897820789617    0.42685148235887
C         2.60561188452962   -0.54979272110648    1.05318891775629
C         1.29871126172499   -1.15752471074261    0.52123258390716
O         0.15039451272012   -0.37648106801067    0.83739390203488
C        -0.33872788464595   -0.40735547675626    2.16300383501861
C         0.49131579572574   -0.12247567398622    3.40064495218251
N         0.29681559054212   -0.81056612676503    4.47896513124866
O         1.36153563691068    0.87503515652186    3.57806234991080
C         1.53171765264845    2.06139850887292    2.77926426682642
C         2.71518741823418    1.91756881828720    1.80660840997288
C         2.67027768566102    0.93105360121628    0.61326388693722
C         4.04166195229250    1.69041132061030    2.58094515744134
N         4.09557325847833    0.88277999840948    3.69335437575022
N         5.01571610492551    2.34182456969921    2.04146449841010
C         6.41070137470686    2.23560411680694    2.49446335519644
C         7.10000092577579    1.23324185793249    1.55423329574174
N         7.15249369013948   -0.07423332935753    2.21214278046021
H         3.62367901831058   -2.36292572056350    0.84554416560692
H         4.72503063190527   -0.88944534935516    0.57176399187643
H         3.50039040299999   -1.43772411232959   -0.63022805478181
H         2.56714083869248   -0.75397316348699    2.13583744581790
H         1.24320186359768   -2.17975001151223    0.88867278159606
H         1.31395691083804   -1.08050979656557   -0.57332066118452
H        -0.80423425761188   -1.37584560977568    2.38210302537232
H        -1.12704423471269    0.34277087589889    2.09372722839132
H        -0.27637167758236   -1.65828164706659    4.35045673439877
H         1.64806525043261    2.92125527972735    3.45472399241944
H         0.63783184783060    2.22929664719348    2.17625747328375
H         2.82206453460102    2.87150457905613    1.25966266255329
H         3.60302457928869    1.20096549485130    0.09930665168518
H         1.82646039558982    1.17086713031237   -0.05025379636954
H         3.23977029228231    0.63894163358123    4.19066792447708
H         5.00225641852995    0.69052296355048    4.10130336208584
H         6.49199966515096    1.92086042123077    3.54182338830785
H         6.67867072527160    3.27924101292969    2.28939804579580
H         8.14385208682796    1.41911705075538    1.27777045874368
H         6.53597826870660    1.14277335498052    0.62031874009709
H         6.26734600495423   -0.58626925966942    2.18554103630342
H         7.39342993288648    0.14479316273578    3.17567501081182
