39
 energy: -54.523309708340 gnorm: 0.122416138988 xtb: 6.4.1 (79825abcba525fcdf90b791dcacef51065a7a4e7)
C         3.55860098723548   -1.85607625784013    0.26479816185685
C         2.44072669296127   -1.02748927819025    0.90615673611550
C         0.98065863987158   -1.47173413166722    0.72965544938453
O         0.09372216317176   -0.44656149804240    1.16667176565987
C        -0.27540373148220   -0.39997317714902    2.53012739896398
C         0.74154676646320   -0.00991623615169    3.58632428217615
N         0.83136764177457   -0.53882507197048    4.76372008870767
O         1.61396010863671    0.99461499073449    3.46970792783114
C         1.53966204302072    1.86815188051667    2.32694311364840
C         2.72849178260216    1.68722415615078    1.36710140851427
C         2.54345612547332    0.44817105746627    0.45616260882079
C         4.03041206415783    1.57923377238923    2.20619272608766
N         4.14578511330125    2.17196943628709    3.44230863185966
N         4.94062199777813    0.82219759255766    1.69377280020038
C         6.19169070345518    0.56983643860205    2.42426276501341
C         7.25128044058841    1.54688063328481    1.88895840084140
N         7.28841235230257    2.78121590782869    2.67644134997055
H         3.49253045329163   -2.90219053501703    0.58016072610199
H         4.51397612874168   -1.50800244756474    0.67233442056519
H         3.58403746605690   -1.77340509415968   -0.81984707527071
H         2.60764253650580   -1.08680941864887    1.99423656708532
H         0.82490927941918   -2.39964512961886    1.27533068774463
H         0.65713322598495   -1.56956075268164   -0.31436168714728
H        -0.70021625320859   -1.34166176712746    2.89813650446650
H        -1.02083337955414    0.39310681007449    2.59562734554122
H         0.17809972881304   -1.30656311602504    4.98166271744812
H         1.55680839893639    2.86653642662357    2.78745433614495
H         0.57451909547442    1.88144440868565    1.81786433652984
H         2.73574000689843    2.62700021935747    0.78629663192179
H         3.44406098946326    0.52325841700090   -0.16857253213851
H         1.64579845464560    0.65938399440577   -0.14333189194842
H         3.28817820226554    2.41996800284083    3.93443029403998
H         4.79403496389369    1.68639692158600    4.05013341356720
H         6.45239760410173   -0.39341866759540    1.96950176830329
H         6.15457670626526    0.47281524130212    3.51616328690035
H         6.95349715953665    1.70104535040554    0.84580697707812
H         8.19083087767142    0.99533213865647    1.99639089188501
H         7.02216071862709    2.52848057166961    3.63122393715202
H         6.68842346466772    3.45921998208086    2.21303974675306
