39
 energy: -54.517439185064 gnorm: 0.128337831133 xtb: 6.4.1 (79825abcba525fcdf90b791dcacef51065a7a4e7)
C         2.73440089381607   -2.47195651825694    0.69410965907635
C         2.12132376527741   -1.16784294445324    1.21465205143752
C         0.63582489753339   -1.24075451890747    0.82957813030581
O        -0.05184921240471    0.00435035983738    0.90331184272193
C        -0.59163245344586    0.40413715756800    2.14679092934051
C         0.37147370254790    0.39750636667196    3.31908234452002
N         0.26186608204314   -0.29622557250924    4.40572644324246
O         1.48710301992481    1.13084373568236    3.28200233563470
C         1.93502055962515    1.91077917379102    2.15702726448941
C         3.20902602769275    1.23458033981077    1.62129200572528
C         2.99368469907026    0.00324485760530    0.70655634640744
C         4.39982370398066    0.92982008112017    2.56989869988053
N         4.09298782980381    0.12123551188793    3.63979204801346
N         5.53868950988823    1.32883680913283    2.11390484580592
C         6.72381170765383    1.29078008788810    2.98368165807633
C         7.41519109962749    2.58771027440339    2.53216957345114
N         7.31010295379883    2.83137619126727    1.09179630664571
H         2.37140671577920   -3.41706873157041    1.11024914918998
H         3.81139324645031   -2.35310172754679    0.85518062755613
H         2.55780706249762   -2.52663733263289   -0.37815964553355
H         2.20607602263114   -1.07064429428139    2.30948855941260
H         0.06545205905783   -1.90942254563486    1.47035581648338
H         0.54986601152736   -1.42051104611845   -0.24954613723560
H        -1.35873526862675   -0.36532172532760    2.29565355741062
H        -0.96524174591258    1.42620281741673    2.07802065109456
H        -0.63977803208065   -0.79369669308420    4.46264776909156
H         2.21961791434308    2.87880528430798    2.59413831765089
H         1.22227083483356    1.82651562781564    1.33500153654444
H         3.72564787738073    1.98286687048643    0.99380898947830
H         4.04662859554280   -0.27846182567752    0.56881846569250
H         2.66442582037626    0.35061786994092   -0.28375392363728
H         3.12335225867062    0.14938271167048    3.95314683913883
H         4.85717529248456    0.03157000820355    4.29815146147561
H         7.37945308427454    0.44408219047750    2.74730674680045
H         6.62929711699045    1.16935929086125    4.06966567755696
H         8.46513619769920    2.63304578374994    2.84227684067901
H         6.82597163387725    3.45284164384607    2.85290410631821
H         6.35174212407809    2.64822027808301    0.78459392559712
H         7.97685092313534    2.27376191167468    0.56365740800489
