39
 energy: -54.522638415932 gnorm: 0.109365379891 xtb: 6.4.1 (79825abcba525fcdf90b791dcacef51065a7a4e7)
C         3.06830286089907   -0.57751846068298   -0.99119651671952
C         2.23810736144219   -0.20121224367513    0.24035096726197
C         0.77037549131544   -0.65106929527472    0.17955033867007
O         0.09889470870985   -0.14137128716674    1.32756602041886
C         0.31701922611869   -0.78311870558386    2.56773439832432
C         1.67760779134253   -0.77054049388251    3.23894608268474
N         2.29892873578193   -1.81040890231510    3.69359671272025
O         2.18300398315334    0.42060376634748    3.56991046993583
C         1.71305375101273    1.67092191279803    3.03106947712449
C         2.49293704778483    2.08014160779167    1.76945608790150
C         2.17264163045620    1.32881406962667    0.45331854714198
C         4.00827743860566    1.98090974955175    2.09292031451326
N         4.35508132147308    2.91734874314208    3.03919623309921
N         4.69287083316647    1.02290266313866    1.56593420286256
C         6.04538723066001    0.74200351394558    2.07018582051809
C         6.11702691517349    0.11848513491378    3.47374882262156
N         6.63982139902731    1.11951519192296    4.40633473953738
H         2.99710905556551   -1.66346780141386   -1.10875252886196
H         4.10395577254060   -0.26697928073006   -0.81520985951322
H         2.77166784789301   -0.16259337176867   -1.95233212891892
H         2.65655494470919   -0.70550870826670    1.12685206128115
H         0.76004683230293   -1.73673265811676    0.11423162343501
H         0.34497528686174   -0.07423111101605   -0.65141470495227
H         0.16501445742519   -1.85628362880290    2.40074523463676
H        -0.51181816523442   -0.43509726952412    3.18485765936155
H         1.81370066924426   -2.68593801686500    3.44523779435422
H         1.83578840759560    2.37259291040655    3.86876290949141
H         0.68023318983747    1.68908868529844    2.67923079058031
H         2.15029695298115    3.11216880408325    1.57430638010367
H         2.96433360232631    1.78041842191199   -0.16011323959893
H         1.16260369994409    1.62451001825676    0.13366071012982
H         3.61393748017543    3.20411306386074    3.67766993226983
H         5.23306168539632    2.64618670747212    3.46473252114521
H         6.59159870345265    1.68854145619466    1.97878017625425
H         6.47268062803327    0.02950784204381    1.35407997371624
H         6.83167913565337   -0.71123466927044    3.43575171522042
H         5.13148607650658   -0.06576036165815    3.91336837672739
H         7.60771189952663    1.42307471974159    4.27437087378080
H         6.56593383365317    0.74422945026535    5.34873511864883
