39
 energy: -54.531467293858 gnorm: 0.102357516512 xtb: 6.4.1 (79825abcba525fcdf90b791dcacef51065a7a4e7)
C         2.68434708430687   -2.37988689813574    0.39147573181325
C         2.15259867099278   -1.16065170975883    1.15190281989232
C         0.63880541724316   -1.39345750857749    1.03133586987843
O        -0.13454685419992   -0.19748656518245    1.04541708503279
C        -0.50306131258640    0.23153388261827    2.34062912335531
C         0.59582093176519    0.29007270702459    3.38509818600806
N         0.66693135074391   -0.48174490452385    4.42110693010315
O         1.53607548736299    1.23747126719978    3.33878676261197
C         1.74730446285270    1.93331415026884    2.09553162272897
C         2.98525373382025    1.35304353017857    1.38975918821312
C         2.62804371491882    0.14948360049231    0.48248590819254
C         4.17215957326106    1.20871028413941    2.38029190109840
N         4.18569210198486    0.21330466089755    3.32982525140556
N         5.20467698714150    1.95795328464248    2.18871210081023
C         6.33755974050591    1.82293017857250    3.11651600795206
C         7.54113436094762    2.58222541100252    2.53447183538139
N         8.23696266054379    1.97904645425622    1.39557330246562
H         2.13350958640623   -3.28295315007557    0.67294215395327
H         3.73613318784203   -2.58642523319065    0.61746412591817
H         2.56319970263232   -2.26196676535917   -0.68339867510319
H         2.50143902551426   -1.13935365720587    2.19744301961238
H         0.19563858137729   -2.07193454418268    1.75680828535682
H         0.47176702967511   -1.73476796705831    0.00186227521084
H        -1.32655383509805   -0.40443191164505    2.68715669069443
H        -0.79189061184578    1.27367193903116    2.20113941780263
H        -0.01435736989677   -1.25341865569348    4.48470693351862
H         1.84814974395141    2.95740534503452    2.48309290129072
H         0.84907711527645    1.80355317454454    1.48957078074999
H         3.29696444037970    2.19717363872412    0.74878601793902
H         3.53786737409437   -0.16880198515259   -0.04471085854584
H         1.83849282248246    0.45625348386313   -0.21915181211956
H         3.29040440319783   -0.17754971714930    3.62114883601930
H         4.67054689487207    0.51148680674034    4.16735898012979
H         6.65219256795514    0.79048620547893    3.31068519849362
H         6.00231728431481    2.26708068644293    4.06170389698252
H         8.29384589530478    2.64818434819999    3.32799644142923
H         7.34824091351064    3.63939477291345    2.32545613435095
H         7.55914111884927    1.76132865451036    0.66104502623253
H         8.65214407518041    1.11768923917459    1.74213552931038
