39
 energy: -54.528031811241 gnorm: 0.105543006463 xtb: 6.4.1 (79825abcba525fcdf90b791dcacef51065a7a4e7)
C         3.43092844559110   -0.84798888595996   -0.37174401151539
C         2.40269396695970   -0.21730169611647    0.57298224300551
C         1.03780293242352   -0.89301398673358    0.37101616868235
O         0.00968674232219   -0.38687126967522    1.21683834894673
C         0.04074450226488   -0.85705581200025    2.54927881236276
C         1.21768343591797   -0.32443648176937    3.34490183405978
N         1.91168315498543   -1.10884633261918    4.10459835369392
O         1.37372065347280    0.99497944043067    3.48121542092879
C         1.21723176653518    2.06358377626028    2.52827559883333
C         2.45475190872021    2.15508536127608    1.61859519548290
C         2.43939283615162    1.30790210742277    0.32192834122366
C         3.76553708239666    1.84509540046665    2.39091704142763
N         3.88131504454363    2.14924809899577    3.72759786595818
N         4.72151437819341    1.38799053024467    1.65517074402031
C         6.11064021742010    1.37432704106990    2.13747494761645
C         6.47603176269032    0.06478713827005    2.85545181523807
N         7.66607715584231    0.39958432611496    3.64081450129760
H         3.41989515493700   -1.94120938311866   -0.31769625311577
H         4.44275125852001   -0.43067329193035   -0.32652085808365
H         2.98572149026142   -0.54345491890491   -1.31672373107495
H         2.62782638523396   -0.42955193852196    1.63107615912521
H         1.08837128798515   -1.97816788591017    0.42507179087418
H         0.67050108294873   -0.63355271718870   -0.62997320709851
H         0.14900780578302   -1.94299308593521    2.44114427228343
H        -0.85039309959822   -0.57453471436873    3.11051590218081
H         1.64799361671546   -2.09870703607846    3.98491846511085
H         1.07255027923335    2.94401330766014    3.17096322383733
H         0.39681923644366    1.96684115603234    1.81525179042651
H         2.59286646530308    3.22074576917793    1.36196696148823
H         3.27978943085952    1.60443179478466   -0.32058619682998
H         1.54457547296199    1.61741414674324   -0.23780199196851
H         3.14449757971299    2.20662484002799    4.42972645082464
H         4.77041662161080    1.83827994348467    4.09942671195394
H         6.39247589487586    2.21411018050356    2.78398014178064
H         6.69857976372544    1.39372343255383    1.21173838308690
H         6.65206637992752   -0.70214281430774    2.09293178737672
H         5.73120073525654   -0.20176509116291    3.61220749001527
H         8.36580135048340    0.83049500941481    3.03165368049521
H         8.11610527752913   -0.45070475316155    3.97081511768437
