39
 energy: -54.531229344569 gnorm: 0.103342637535 xtb: 6.4.1 (79825abcba525fcdf90b791dcacef51065a7a4e7)
C         2.98925433239514   -1.49232764964057   -0.29320960016944
C         2.23023165651946   -0.48893945425128    0.58122557277526
C         0.73177570412877   -0.60216711379301    0.26167246011061
O        -0.11680672259605    0.05489661001715    1.19804505810136
C        -0.29729329604911   -0.57248686855029    2.45154027159227
C         0.91608364515347   -0.51307098421570    3.36042462582210
N         1.28667421965787   -1.51309148531937    4.09301924258560
O         1.63564533332467    0.57784551468730    3.63595970699194
C         1.59647912805051    1.73324042995294    2.77687477721402
C         2.71066788479446    1.85755357963082    1.72308316943310
C         2.75338654870649    0.96102419502894    0.46066070404300
C         4.10861786599594    1.89734760355102    2.39753473219003
N         4.18200192049283    1.51861805890119    3.71806787156239
N         5.05172207965487    2.19338200626330    1.56863295048913
C         6.49128766482872    2.10803333291287    1.85645436223711
C         7.07664395329388    0.82337562640559    2.46547743791631
N         6.92210707847798    0.74220687445171    3.91965133599174
H         2.67359496582511   -2.48282603109888    0.04949445865315
H         4.07872901255728   -1.42458623225735   -0.20134631154580
H         2.79836817871797   -1.45957220772286   -1.36392262856653
H         2.45167895629338   -0.83460013737437    1.60434692136348
H         0.47988548247053   -1.65840766991155    0.19886033420172
H         0.51718548731335    0.01220052491045   -0.62190774215493
H        -0.57999855797219   -1.62377842065416    2.31911068223916
H        -1.14969633181857   -0.03612912139412    2.86946479119511
H         0.75662987742533   -2.33736957613360    3.77161872736568
H         1.78287788703297    2.61040604834575    3.41324909884420
H         0.66173177526411    2.00648293594587    2.28450831979663
H         2.49648313682290    2.86839852909903    1.33208036962653
H         3.81771348959241    0.91850137000861    0.19154881566194
H         2.29879540925428    1.50994194587100   -0.37709227744911
H         3.44819645803878    0.86999428310395    4.00089888321371
H         5.14252465703893    1.35752018716080    3.99538187404842
H         6.81830635165172    2.94761107474908    2.48159757265218
H         7.01304843199228    2.24394064466944    0.90129352730698
H         8.11644733470796    0.85480977138529    2.12134468244223
H         6.58472122769237   -0.08767673017088    2.10981167433781
H         7.65103628514370    1.26488621466066    4.41142708678934
H         6.98098341617832   -0.22713828372486    4.22184461155207
