39
 energy: -54.525623638093 gnorm: 0.108886272662 xtb: 6.4.1 (79825abcba525fcdf90b791dcacef51065a7a4e7)
C         2.91984231794038   -2.51939156802545    0.68794451050159
C         2.25692453614553   -1.25057595321218    1.23400964425297
C         0.73169819782924   -1.39781223823139    1.12305451919548
O        -0.02793668748684   -0.19303584558350    1.13239249267628
C        -0.51275736206001    0.22718468902698    2.39167772420993
C         0.56586790913124    0.61393974821052    3.38609849050870
N         0.67527365934836    0.17292371129045    4.59754740676300
O         1.54321908198183    1.47130354523636    3.08032175006571
C         1.78854610666210    1.90242479320470    1.72812078419913
C         3.07986844166842    1.25383802475199    1.19975638922361
C         2.73187270615063   -0.03200509358124    0.40930919644024
C         4.19371110955721    0.97274863475331    2.24430216420706
N         3.82839886409818    0.09906372596144    3.24222535938562
N         5.31938422093981    1.58566918731956    2.09819079858497
C         6.38975613402513    1.33158653255354    3.07400872477271
C         7.46518022456197    2.40373802284943    2.83348691685018
N         7.61964490275683    2.89240076714200    1.46146609766825
H         2.63101114893700   -3.42223234255313    1.23532832698049
H         4.01035031713374   -2.48516117771854    0.78594160844377
H         2.60192446789736   -2.53823255410724   -0.35249294459665
H         2.63766394449476   -1.19617584890395    2.26714837826540
H         0.54571872150603   -2.09561409969027    1.93639476618597
H         0.51712936795989   -1.87595331686274    0.15892182101235
H        -1.07618526250759   -0.60045559431970    2.83915325583605
H        -1.09665697591762    1.13110464209503    2.21583281290642
H        -0.11077269500447   -0.42098318620303    4.90264638809431
H         1.94755441890141    2.98582886086429    1.82856116374549
H         0.97489743714988    1.63812988466535    1.05065280629079
H         3.53656865144279    1.93830606231436    0.46253577961656
H         3.68487757858445   -0.43547564992628    0.04050780981331
H         2.01689865780320    0.17569444441177   -0.40029989117238
H         3.13203564106898    0.33616274296388    3.94794410714885
H         4.66167870272431   -0.33174539696631    3.62368009656083
H         6.81793469718553    0.33964747262695    2.88597663525466
H         6.03253210778001    1.45929742000432    4.10314342969737
H         8.43956632545743    2.04908033043452    3.18760015031609
H         7.25155278348052    3.28328918115420    3.44932421783242
H         6.71376904122577    2.87461381810946    0.98665306178464
H         8.07179068681914    2.19079086545584    0.88032500363992
