39
 energy: -54.529976415521 gnorm: 0.113286418864 xtb: 6.4.1 (79825abcba525fcdf90b791dcacef51065a7a4e7)
C         2.80215654034359   -2.49537192942781    0.79043517164347
C         2.18426754335436   -1.20826958839513    1.34642162349920
C         0.75432030235265   -1.13896313368962    0.78896986988232
O         0.19065088813795    0.16447218756365    0.89829361076514
C        -0.58334548371410    0.27239312230631    2.07588368366036
C         0.31132840681596    0.18401685302214    3.29802642911614
N        -0.01694760778655   -0.57101005349080    4.29614589887447
O         1.37586865121343    0.96422488413525    3.50251825588674
C         1.89668452494212    1.73759653443052    2.40472709812981
C         3.13082704363175    1.18497917479914    1.67066077882968
C         2.93756576827450   -0.01630466451562    0.71208501681671
C         4.36854285239806    1.08767609705585    2.60303637985121
N         4.08845545134060    1.40335228090255    3.91243648104519
N         5.50347299440206    0.83677409395599    2.04344562401142
C         6.79314281038523    1.07630779691570    2.70816361177701
C         7.26682342671231    2.49181033758943    2.33955032423136
N         7.63237519128634    2.68946917619306    0.93513064618567
H         2.31284696667987   -3.44713500886780    1.02042893647673
H         3.82478032313892   -2.61486128607525    1.16452839677339
H         3.01640652036875   -2.38669797460595   -0.27080172778575
H         2.20123364988444   -1.14625820513876    2.44695070088773
H         0.05092386138038   -1.85105126097808    1.21464827881847
H         0.74553502550184   -1.32920264593592   -0.29174391361923
H        -1.40348295123809   -0.45340836756556    2.13298465468872
H        -0.97567757111633    1.28538294178535    1.98176334996196
H        -0.93987242745112   -1.01674529323684    4.18121314768193
H         2.06634616778060    2.73737207915648    2.82993300547191
H         1.18622787020039    1.86959126820627    1.58700615474054
H         3.47837294165642    2.02018236458610    1.03645790225300
H         3.93910743713509   -0.31031960647138    0.36931582282038
H         2.34991967730378    0.38988759203350   -0.12426047752483
H         3.17522995232823    1.19259099501541    4.31340467635786
H         4.89207454183116    1.25483493829123    4.51043184418793
H         7.55077425755401    0.35333009121531    2.38268877870609
H         6.69875697196336    1.08489151871558    3.80089182359410
H         8.16440067054842    2.72968939725129    2.92125057053477
H         6.45875054116341    3.18112053627485    2.60482784811947
H         6.79236486942091    2.45317057452196    0.40135119629095
H         8.21989749091891    1.96291999395962    0.53343291414573
