39
 energy: -54.522738629480 gnorm: 0.116269630666 xtb: 6.4.1 (79825abcba525fcdf90b791dcacef51065a7a4e7)
C         3.21630425037668   -2.03998531704728    0.92804415435624
C         2.29743718706581   -0.85446659264763    1.24072425834496
C         0.91297752645544   -1.04820104546340    0.60350894552782
O        -0.04168080687935   -0.03917916711309    0.91834355763677
C        -0.67097616569924   -0.13791294443566    2.17995945771364
C         0.32846365708351   -0.06259235195289    3.31896405330704
N         0.25863676536761   -0.89694505256437    4.30539855247925
O         1.09088671899434    1.01692468020897    3.51168524411295
C         1.54224799209407    1.91539622459296    2.48041409035087
C         2.86169274172968    1.69078156324189    1.72149321713481
C         2.91074599380147    0.47983393355248    0.75686897228056
C         4.08043911055928    1.48316846885137    2.66079439620348
N         3.94821899686947    0.95811524467797    3.92549436436329
N         5.21039526393316    1.60286175060019    2.05003035798908
C         6.49941618895491    1.56531023857248    2.75677613071653
C         7.58991883147727    2.19378154314000    1.87375612346759
N         8.21720842900806    1.30730248454482    0.89102809358860
H         2.69254931700090   -2.99802164244039    0.85044828823327
H         3.85474639310750   -2.14212615191077    1.81231884513455
H         3.71444915142254   -1.80120933631205   -0.00938559025834
H         2.14895269091529   -0.78027193870766    2.33056141164004
H         0.43138922989540   -1.98859334405540    0.86191405010512
H         1.01382472958790   -1.13905481587806   -0.48542905350989
H        -1.28046701307393   -1.04705566285440    2.24818125286738
H        -1.45054820471276    0.61881520604237    2.08743154459936
H        -0.37782587774493   -1.70743471152301    4.26414956883453
H         1.67992771344582    2.88384423475984    2.98269791018213
H         0.67305337717676    2.00283113944869    1.82643039887161
H         2.99468058308223    2.57690791163991    1.07522692773641
H         3.95930348981850    0.35863214038373    0.45214198690228
H         2.41314537152920    0.77464712855570   -0.17869111129004
H         3.02798192923171    1.11055412756455    4.33671543157890
H         4.67728119804954    1.11242944467414    4.61114364091503
H         6.74802404790402    0.51704990264372    2.96166743710901
H         6.57779393132233    2.05432842257975    3.73542594418264
H         8.42603254141517    2.55058138574444    2.48548667634070
H         7.17144137889877    3.01749982674700    1.28650207783515
H         7.54598652843878    0.81381856838251    0.29747131017996
H         8.61852150112257    0.59947796962698    1.50123257583587
