39
 energy: -54.521922828209 gnorm: 0.123121623739 xtb: 6.4.1 (79825abcba525fcdf90b791dcacef51065a7a4e7)
C         3.62447641258691   -0.91060733641050   -0.44187069333318
C         2.62206170486765   -0.38615334284670    0.59140221934464
C         1.31583204139749   -1.19472768440897    0.60803086192178
O         0.26483630652621   -0.52220854622299    1.29486743625180
C         0.06370569794026   -0.84306908166167    2.65649538580231
C         1.20751759304908   -0.54064761229203    3.60629548180093
N         1.55965966778452   -1.26872445571207    4.61623276147817
O         1.65097930406314    0.71882846193428    3.57715540653669
C         1.18384829487992    1.76758726938499    2.70744745316641
C         2.37270701756248    2.05920323663163    1.77528749755400
C         2.44933834472697    1.14887065307841    0.52439880720968
C         3.67208659764141    2.10147101607866    2.62414482314568
N         3.83796090815114    2.98236670256762    3.66776236027455
N         4.52235259412377    1.21804195727485    2.22319477923988
C         5.76257830239750    1.05024003452918    2.99530705541070
C         6.76971803953273    0.23094536755523    2.17170379478146
N         7.58352531011013    0.98634794030264    1.21662451963959
H         3.58031800499259   -2.00380490746151   -0.40806163310298
H         4.59806784540134   -0.45775412100410   -0.22501468235356
H         3.29347844111718   -0.55364142434748   -1.41498554418430
H         3.11656857580836   -0.53848541943017    1.56482679144406
H         1.45058827296567   -2.13579807002061    1.13648657254130
H         0.94492659371265   -1.27499374707677   -0.42162783515720
H        -0.07024902552560   -1.92411275254095    2.78328065946592
H        -0.87630451083727   -0.37664653180798    2.95274238327176
H         1.36475514969333   -2.27943825903306    4.55181616921750
H         1.11220681551111    2.63263188840447    3.38250419401522
H         0.28444157579606    1.54686895374854    2.13022150496522
H         2.30139288702972    3.10630173959079    1.43022979709226
H         3.34497467312311    1.45000968425842   -0.03611174519994
H         1.52276184285914    1.32081067844780   -0.04277530513622
H         2.93398666070644    3.21936487752978    4.07499579447863
H         4.49672790749302    2.72229213511299    4.39153495035235
H         5.52674530751327    0.60846497933880    3.97093692699838
H         6.12814537278941    2.05411819712729    3.24355425549034
H         6.17478550866682   -0.47635474981835    1.58315612231496
H         7.39160213577259   -0.40454741875447    2.81038336529643
H         8.31675747413936    1.57735236141402    1.61594799526741
H         6.89163985268702    1.49225716037654    0.66911414467904
