39
 energy: -54.530357468359 gnorm: 0.099096407784 xtb: 6.4.1 (79825abcba525fcdf90b791dcacef51065a7a4e7)
C         2.74449024629761   -2.57244168882853    0.69711920241171
C         2.14581623083030   -1.24483960878918    1.17314683320569
C         0.64194486624626   -1.24186054669827    0.85903383283639
O        -0.01148187818307    0.01730852948378    0.98609773966009
C        -0.45543250218451    0.34826711982459    2.28640921422219
C         0.59959838545606    0.44498751895482    3.37242928840556
N         0.75857109404460   -0.37901956595418    4.35722024964243
O         1.43504727933326    1.48464882954371    3.30230862233657
C         1.96780825041394    1.97577481146055    2.05753582085327
C         3.10620688893529    1.15128000421338    1.43175317250367
C         2.85454826752077   -0.05250738445915    0.49001853408941
C         4.16912439814734    0.89057756466013    2.53310379447914
N         3.91945258665122    0.25633268459848    3.72810439654805
N         5.29906148987553    1.33166011116066    2.09395866085252
C         6.38552804635326    1.57233057639891    3.05528212608127
C         7.27870831790724    2.69536344004541    2.50308404356444
N         7.70053860399092    2.54496835336745    1.10861917456214
H         2.16548333281070   -3.41576025796958    1.08665576641440
H         3.74412824474937   -2.70713800424437    1.12439384292769
H         2.65504806355803   -2.74711100055520   -0.37312729239068
H         2.40010890259042   -1.09830779293709    2.23576678927239
H         0.19257067487952   -2.02298726702186    1.46808394557850
H         0.58925100763125   -1.55802672776028   -0.19047692626398
H        -1.17674957234634   -0.42146838069287    2.58621370287881
H        -0.97090044895549    1.30893709736390    2.30477938479454
H         0.06570094587300   -1.14291952412652    4.34900600263335
H         2.37810403812334    2.97463085434658    2.26509365164861
H         1.16494364053709    2.05150538915262    1.32234053635268
H         3.67387334345158    1.88074766801227    0.82661060790200
H         3.84463277664656   -0.32844894059147    0.10193330412229
H         2.28972232968124    0.26711235558469   -0.39801791419788
H         3.00998744800932   -0.05882988112729    4.06384586750791
H         4.58673879563875    0.29014934954932    4.48905448121464
H         6.98984401828438    0.65858184628004    3.10529724995490
H         6.06911112990028    1.82205812153990    4.07535751789987
H         8.17975600004727    2.75100619484874    3.12406994761148
H         6.80032291593938    3.66273469142676    2.68704809939275
H         6.99203460258852    2.26420498350488    0.42629309372223
H         8.35932964822863    1.77758840373817    1.00119660549358
