39
 energy: -54.519378724647 gnorm: 0.111688369561 xtb: 6.4.1 (79825abcba525fcdf90b791dcacef51065a7a4e7)
C         2.34878822396576   -2.75179922203581    1.26743161670313
C         1.81809173329640   -1.31478049382748    1.29707229866485
C         0.40149930445813   -1.20780172949687    0.71215659857467
O        -0.09141043505376    0.10904085321609    0.93927798574846
C        -0.41830076860717    0.27694722447238    2.30397057042935
C         0.74495219217632    0.36403286188937    3.27409596056587
N         0.81684880773147   -0.44836662780393    4.27854167729343
O         1.71932047396388    1.27299349023605    3.18362800498231
C         2.02169429704390    1.78244332831989    1.87079546414777
C         3.18777986374663    1.01969597653335    1.21825576813781
C         2.68143413136033   -0.27831137162035    0.54143140005268
C         4.28149983065206    0.93435589838711    2.31699429045155
N         4.16723709644725   -0.07852672404106    3.24092172019974
N         5.29802453621601    1.68214289812864    2.04931494322503
C         6.46065342381003    1.72369260560122    2.94878275454100
C         7.39759340589152    2.93698950192293    2.83066993984216
N         8.05178965587612    3.14037553634735    1.53616110336117
H         1.63520329267221   -3.46374763276977    1.69416332708468
H         3.34222855917476   -2.80409452884098    1.72604293810746
H         2.54001635487843   -2.96777963416319    0.21827905415743
H         1.67492323971675   -1.07615951638072    2.36377765493294
H        -0.37256458198574   -1.82695154145821    1.15994758560178
H         0.50385524913869   -1.34641809502683   -0.37159581649374
H        -0.95367998881337   -0.59387020101613    2.70111021596587
H        -0.94884627700989    1.22943216271314    2.28895780731304
H         0.00163388754551   -1.08000620529615    4.26689074381626
H         2.31638619878458    2.82402116670230    2.06420845447656
H         1.05412777297232    1.85089938736690    1.37082785771799
H         3.63976958043825    1.59377288599773    0.38957802482164
H         3.60743727454300   -0.78206040624999    0.23195390393615
H         2.17225008449144   -0.09412154845473   -0.41596067009099
H         3.26237988048691   -0.10623683426825    3.70958173899580
H         4.92725879864302   -0.02886470024321    3.90827485546261
H         7.02462567937879    0.80457462627369    2.74929971708664
H         6.21047195858266    1.69230121353415    4.01623820138153
H         8.20856537815620    2.74858357953133    3.54301409989974
H         6.75924910730690    3.81283799004904    2.98529363174077
H         7.45295279286270    3.60361959347390    0.84828449723046
H         8.36872575936102    2.24709556144426    1.16735271454307
