39
 energy: -54.523109046998 gnorm: 0.114448549708 xtb: 6.4.1 (79825abcba525fcdf90b791dcacef51065a7a4e7)
C         3.21718489906449   -0.95070001036324   -0.58652154194076
C         2.36312568368305   -0.31706473229777    0.51648767915497
C         0.86252128097195   -0.62553506253077    0.40100007412662
O         0.00372924068628   -0.18875540652812    1.44996062923511
C         0.04897536185789   -0.80803855081159    2.71955773964119
C         1.37991132105605   -0.56471330276652    3.40606109011312
N         1.83058708788791   -1.50895651285811    4.16722422488257
O         2.01171735660730    0.60884119308075    3.49195834598087
C         1.60082360934466    1.78976907176630    2.77706396862767
C         2.58184663140280    2.04326427537046    1.61918613579391
C         2.55850766041296    1.20376131235543    0.31765230209985
C         4.01431858586020    1.94521193353609    2.21006887292103
N         4.13836663112503    2.27283440207005    3.54044650204212
N         4.99148074610825    1.85160566655933    1.37307900536230
C         6.36180386053713    1.55730225307806    1.81813483540251
C         6.50936914102432    0.26639104383938    2.64012586389011
N         6.22240114721919    0.61286613249683    4.03393220667351
H         3.26551772127353   -2.04199064760774   -0.51636011129081
H         4.25911410632511   -0.61809968750761   -0.52533826969116
H         2.74742973124518   -0.61945559868859   -1.51039602208981
H         2.70874712880516   -0.65712873465459    1.50653807048281
H         0.87469270390155   -1.70879057219988    0.30380180115029
H         0.41173307135579   -0.24321615210626   -0.52357158639625
H        -0.26277870796665   -1.85937729263147    2.73259653278746
H        -0.62843362531012   -0.22550672318241    3.34462189234634
H         1.39112410141002   -2.43668231798738    4.06784230252526
H         1.74941065707497    2.63857762513066    3.46013220099702
H         0.59723854035830    1.68809148461016    2.36074981867473
H         2.42550594735162    3.09759335534628    1.32847398822220
H         3.53776908188936    1.34753485637224   -0.15920979104779
H         1.83540904566383    1.53479034371358   -0.44217794725238
H         3.45531379859173    1.75188159157568    4.08928494788807
H         5.00544466823244    1.89563135080770    3.90287310563742
H         6.66400307937850    2.41949599325728    2.42471016203824
H         6.92765455075933    1.43870797772918    0.88604808688442
H         7.47424777190327   -0.22518885476345    2.47289859906443
H         5.76464709661643   -0.44115469015425    2.26161481860903
H         7.02198788506318    1.09429345329302    4.45257722730727
H         5.96211340699826   -0.17634022653318    4.62029459375191
