39
 energy: -54.526334300722 gnorm: 0.114818795548 xtb: 6.4.1 (79825abcba525fcdf90b791dcacef51065a7a4e7)
C         2.78772092838680   -2.51984767990997    0.85693041002126
C         2.14280405576631   -1.16589101166071    1.17065595541210
C         0.66296018454922   -1.16944816564184    0.75791587312847
O        -0.04077400792775    0.03801482057149    1.03252436521233
C        -0.61052571471962    0.14638608155318    2.32135109170043
C         0.42679022066126    0.35248400828062    3.40918558288675
N         0.35688418173237   -0.12973461040351    4.60778959484321
O         1.55377751435381    1.05194811554886    3.25286221820979
C         1.82282741947638    1.88891246655800    2.11198485983366
C         3.04181908822975    1.26125947691593    1.41380285245340
C         2.94569025554614   -0.00888054966901    0.53243809576729
C         4.20985124701329    1.07863997299256    2.42032338582927
N         4.09356466232176   -0.04536048985256    3.20500766865297
N         5.23055591054303    1.81770179825800    2.14444356568499
C         6.42901380684619    1.75822341041543    2.99452334184267
C         7.55048167688104    2.71807738211206    2.56453882441984
N         7.94163424766431    2.39423856715163    1.19077762748040
H         2.39017566537849   -3.34281673396174    1.45930375193441
H         3.85232358257027   -2.48483076721491    1.11262132638628
H         2.65433823073465   -2.78383305330230   -0.19018830754087
H         2.16606392824512   -1.06753204087908    2.26841822028320
H         0.10913218426798   -1.94597434735447    1.28071582106237
H         0.47627054080468   -1.31489276033879   -0.31362664357498
H        -1.08122923349099   -0.79479346700848    2.63004679560897
H        -1.29178361642945    0.98609748650352    2.18098055553553
H        -0.50462441597940   -0.67846597986699    4.75053580564481
H         2.15832446238812    2.86634148467401    2.48776475660984
H         0.94777160426722    1.93948941315248    1.46194017297869
H         3.27906445715077    2.06031464211316    0.68868819195658
H         3.92770828498426   -0.44942984629961    0.31203364381670
H         2.42411525320125    0.30485400466002   -0.38370818105344
H         3.21964833305165   -0.42568686811187    3.56666872275559
H         4.76861350232292   -0.03274099436584    3.95973232990771
H         6.85213244804857    0.74683101024283    2.96821611224918
H         6.14373174447480    1.98796434693125    4.02838530435820
H         8.45553502228486    2.56402466178029    3.16266316871645
H         7.17439283399703    3.73759967268452    2.69733182625231
H         7.10063929163549    2.14882496622847    0.66269191620388
H         8.70229973605346    1.72424193553281    1.10765264800882
