39
 energy: -54.529376639532 gnorm: 0.104336344094 xtb: 6.4.1 (79825abcba525fcdf90b791dcacef51065a7a4e7)
C         2.45828463024171   -2.64938181560113    0.82554850301687
C         1.97744536195920   -1.23455476200406    1.16407203631347
C         0.51661280074330   -1.14960050659316    0.69603789534718
O        -0.06369432223247    0.12075781067501    0.97541562307978
C        -0.43437249945950    0.30464409105482    2.32679241117677
C         0.67121783444493    0.27621426496077    3.36541958812629
N         0.60499706235570   -0.50797695534319    4.39242115034305
O         1.65498010926817    1.17902704950362    3.39588767172484
C         1.95519696547543    1.84588909647946    2.15505601663927
C         3.10969099428499    1.19728695348524    1.37159834702249
C         2.74704448954177   -0.05228892135732    0.53115325094542
C         4.32393160330046    0.99876191904143    2.31866760690759
N         4.28465058425336   -0.02565682300129    3.23608371642592
N         5.36402381202405    1.75157628226248    2.19361227405095
C         6.47375395249089    1.77307836910750    3.15824242626704
C         7.55407866717322    2.76111338329578    2.68858099922656
N         7.78666835541589    2.74422555146938    1.24265272188759
H         1.79930218128305   -3.36739891088987    1.32391336427256
H         3.47197969492896   -2.73638325543219    1.23154839681223
H         2.46675841515214   -2.84884377802115   -0.24406823049037
H         1.90373030706939   -1.27080644572966    2.26341248289879
H        -0.11151605745548   -1.99032139950879    0.98183621490440
H         0.54921738993072   -1.30951962988682   -0.38912262361527
H        -1.25576688795255   -0.36905456023076    2.59903345122985
H        -0.88049633201127    1.29956811229765    2.32120634348013
H        -0.20601008022292   -1.13772362715770    4.29564194707604
H         2.18033046243619    2.90503519738774    2.34652596440772
H         1.06762118451391    1.95643795496864    1.52989443380231
H         3.41411609351963    1.99841854276296    0.67440443644371
H         3.68688697189140   -0.42918774949173    0.10493193105280
H         2.16395042842065    0.23427659902440   -0.35635753016947
H         3.48392729358061   -0.58475302840834    3.52836830008778
H         5.07705151915248   -0.03765631049699    3.86649332720611
H         6.90276651221023    0.76562691020535    3.21845728810995
H         6.05488229148315    1.99519813794119    4.14730595258914
H         8.43990546575601    2.42793815819536    3.24076909095863
H         7.36052253838634    3.79221827547429    3.00140879733912
H         6.84866619469113    2.94214200566153    0.88578314385312
H         7.90084483122147    1.73959575196809    1.13265301681788
