39
 energy: -54.519950810429 gnorm: 0.116907095400 xtb: 6.4.1 (79825abcba525fcdf90b791dcacef51065a7a4e7)
C         3.74259606957310   -1.51737980721582    0.62189843598559
C         2.60933018543513   -0.57835089141532    1.04789527242736
C         1.27935594893692   -1.11680335587977    0.49876649630514
O         0.13048124461393   -0.46886279696779    1.03624063635135
C        -0.07145868867970   -0.57659431923730    2.43089107102743
C         0.76851453547522    0.02421012912208    3.54236017507444
N         1.04372433079942   -0.58725030709281    4.64890837686971
O         1.21963517558781    1.27913087673312    3.46852609826574
C         1.35056145190183    2.00949451799956    2.23405229246104
C         2.75012207179281    1.93063220421945    1.59973540507329
C         2.85168578911346    0.84634471246210    0.49823380480328
C         3.84831716058710    1.62560740371615    2.65408831068440
N         3.79522153812676    2.44201939994202    3.76010881691983
N         4.70763535111137    0.75351666805000    2.24765248210951
C         5.93534504045937    0.44416977246029    2.99565519725715
C         6.96295227725834    1.33882377330308    2.28325494625650
N         7.31836313243159    1.02992910442571    0.89640277340348
H         3.55951019228900   -2.58473064688792    0.78132144435023
H         4.68386094508259   -1.17059684725430    1.06206301697509
H         3.94801955689264   -1.44984608879144   -0.44448668342497
H         2.53583873500577   -0.64089340433228    2.14606873302889
H         1.20113630145794   -2.20148219865061    0.51855660280695
H         1.18963087711997   -0.73147970362687   -0.52479865930266
H        -0.18254488951723   -1.64032051648850    2.67341985761762
H        -1.00435164279866   -0.02548490822757    2.55304107146876
H         0.72308574923029   -1.55832193147425    4.78266358620204
H         1.16659065082272    3.05446104321518    2.52273203116116
H         0.59384414646457    1.71788187660512    1.50386067411008
H         2.98575616133995    2.92527572394632    1.18053778425248
H         3.85013322810582    0.94183360340758    0.04989708168574
H         2.20817491793138    1.19566515027104   -0.32253586935601
H         2.81627684083625    2.70920652026619    3.85734546907602
H         4.43363439413608    2.49761917210954    4.54419884764971
H         6.13577382319825   -0.63318847594626    2.95366053834350
H         5.78786407346773    0.65223074942897    4.06242476379400
H         7.87812087207966    1.18520874245394    2.86590012184864
H         6.62148451790505    2.37686830597681    2.21718057924243
H         6.61876792383214    1.30881991242942    0.20418797179777
H         7.62343718072473    0.06051448649906    0.85662389842499
