39
 energy: -54.516191675726 gnorm: 0.100828088159 xtb: 6.4.1 (79825abcba525fcdf90b791dcacef51065a7a4e7)
C         3.63003370755539   -1.12960470640639   -0.00480085731592
C         2.60701595392212   -0.37600672186611    0.85139125795538
C         1.21754500720654   -0.90666191024780    0.46657895922819
O         0.06898030589019   -0.48708880041670    1.19690494152884
C        -0.02002159904867   -0.91641303698343    2.54048040224015
C         0.94482990920289   -0.36830873735316    3.57514354657611
N         1.57013428852181   -0.97112370499384    4.53414394730782
O         1.28935085937126    0.92151627187907    3.53714152280996
C         1.13966325149053    1.85492012352429    2.45047266990134
C         2.52981622619869    2.03792644605913    1.81696616214484
C         2.76177607025854    1.13787780140905    0.57785058974188
C         3.73281020364211    1.84377418394876    2.77917351562264
N         3.56293956522698    2.05721993540536    4.12758514662128
N         4.84465146803755    1.48168901890126    2.23432177804286
C         6.17066985594536    1.49923193260530    2.86980750757720
C         7.15139710122276    0.51431490355362    2.21253356416140
N         7.02246531851606    0.70155219845404    0.76567125775399
H         3.25541960714023   -2.15728984991554   -0.04604980850067
H         4.61520241876533   -1.08044048521128    0.47165306386254
H         3.72796651669090   -0.68479624560886   -0.99297666990930
H         2.70522251297640   -0.63310952882970    1.91888886123105
H         1.23526910935820   -1.98437871514559    0.61235448849173
H         1.02801368711837   -0.56031994562175   -0.55730367773561
H         0.09995370204903   -1.99119159592573    2.72249896102809
H        -1.01547252379657   -0.61357201447303    2.86651144201496
H         1.66342495378402   -1.99822471652803    4.52781793560514
H         0.76361871805664    2.74099578515901    2.98207093562213
H         0.43687858899436    1.42786563956577    1.73314638500878
H         2.44701217051394    3.03785240174035    1.35451901110790
H         3.80057586422789    1.41305851962686    0.34939533929744
H         2.09664718682220    1.43958463819428   -0.24456683586996
H         2.63930006489606    1.90173271873151    4.52994124908454
H         4.37093577753326    1.74125608035979    4.64985755237115
H         6.18534829905627    1.23102091146901    3.93304944988464
H         6.55699953210453    2.52213201138527    2.78342391971837
H         7.06787940719681   -0.54158885620720    2.49306622560152
H         8.19401085139675    0.81357811950566    2.36052206976763
H         7.42352317270551    1.63270997369316    0.62975706850329
H         6.05566121916704    0.84263072318141    0.48317538382005
