39
 energy: -54.523634049933 gnorm: 0.121711617983 xtb: 6.4.1 (79825abcba525fcdf90b791dcacef51065a7a4e7)
C         3.47299835437861   -1.76611562830859    0.80609260208929
C         2.47907525403192   -0.67038305721563    1.20487471984522
C         1.07831963282514   -1.17360288063464    0.82414063475075
O        -0.00329599676423   -0.25653952822207    0.95726072060977
C        -0.45298605472454   -0.25788931039165    2.29711620681275
C         0.69621569455125    0.05341290681067    3.23749427222344
N         1.18000303473220   -0.81559747141220    4.06504730677818
O         1.12096650474023    1.31227637215721    3.37401149019160
C         1.37985078130507    2.05005914032606    2.16440252325026
C         2.80072969392786    1.85193602594044    1.60834726438477
C         2.83351399545703    0.69715043524257    0.57650631279091
C         3.85838489302546    1.61711947831209    2.72053396683631
N         3.62989979794482    1.02403424722322    3.94064605235817
N         5.02857901277322    1.88520865897203    2.24837509708038
C         6.26522244162615    1.63636207092135    3.00419455134996
C         7.46329282247775    1.75886182359569    2.04841335193378
N         7.56070469505585    0.67470014462347    1.06851737623595
H         3.18042471889351   -2.71866191097274    1.25911599845104
H         4.48482429721898   -1.57108861050471    1.17778544455594
H         3.58812511675523   -1.87423228885715   -0.27047297941103
H         2.45431330063349   -0.65250221461793    2.30685685800830
H         0.75228244253653   -2.13745164069684    1.20850176279605
H         1.02393640032462   -1.22232899867355   -0.27079258922432
H        -0.97284250859920   -1.19285898952870    2.53847643429186
H        -1.20656586107496    0.52978409738089    2.27222532556341
H         0.74930817701354   -1.75126772010746    4.01305894109306
H         1.23843016173712    3.06926854416924    2.55215075140963
H         0.64250919092853    1.86919467388001    1.38053120837466
H         3.00872941135431    2.77649503672131    1.04046299304390
H         3.80815202029348    0.72198484528224    0.07006263185845
H         2.11489084926684    0.95032577782742   -0.21676343117627
H         2.84205281276680    0.38471332726946    4.03935023219996
H         4.38747562058900    1.01642913556598    4.61256905819106
H         6.15740381510116    0.61805532137496    3.39670258247463
H         6.40448281541784    2.35405780867100    3.82184771019305
H         8.30582079445797    1.65362450763937    2.74100143946970
H         7.59853546784664    2.69081375802359    1.49013249013284
H         6.65687877346925    0.65663360658068    0.58982418131429
H         7.67240571760421   -0.22152474639931    1.53619361210753
