39
 energy: -54.526394820846 gnorm: 0.110907291276 xtb: 6.4.1 (79825abcba525fcdf90b791dcacef51065a7a4e7)
C         3.62543740694961   -1.54257632797053    0.20273711798041
C         2.58503730792044   -0.79187506969758    1.04032618080458
C         1.14607341645221   -1.16776895237266    0.65510980136742
O         0.25512811040756   -0.10861690564301    0.99131200584108
C        -0.39102531422063   -0.16535462853625    2.24698005933990
C         0.50082394123430   -0.20634058706388    3.47368689785735
N         0.40139599255030   -1.03778366757175    4.46003862300392
O         1.32772853131118    0.82440068603192    3.66756478713215
C         1.52206191409150    1.79008822422282    2.61676488457030
C         2.86074539385589    1.59923826373277    1.88270091458687
C         2.81179691717108    0.68284295579848    0.63485317768788
C         4.08801103684755    1.36714776193723    2.80502711504884
N         4.21470235307260    0.25909821422372    3.61051115904402
N         5.00736007417401    2.23787481574404    2.55846713478277
C         6.37834423177007    2.19278868955109    3.08841460388598
C         7.17338749551660    1.32841587759301    2.09611304792283
N         6.88328325495046    1.61608151828978    0.68963526621316
H         3.66137560548897   -2.63314120536728    0.28963156034770
H         4.64680942210142   -1.22873473516250    0.44416103927459
H         3.52501911192285   -1.29453368617024   -0.85193242833115
H         2.79467653137639   -0.99349253810251    2.10366963538555
H         0.87028066921220   -2.08060504587415    1.17827974374633
H         1.04126428832024   -1.25028753331331   -0.43411756864667
H        -1.09343605150745   -1.00423915106086    2.32158367815503
H        -0.99555939337486    0.74209605732755    2.24517117412937
H        -0.16555307065321   -1.86302924609968    4.21261558802310
H         1.72253756355068    2.66427089416389    3.25296490586400
H         0.68650698001529    1.82052333226397    1.91550854026701
H         3.07485625634248    2.60851731839555    1.48763366539764
H         3.72724457641517    0.71416173228083    0.02822649095193
H         2.01822060465058    1.03414622231696   -0.04088087622259
H         3.27654006568440   -0.01692266200487    3.89833166183061
H         4.89287844507836    0.46750381247944    4.33307866471527
H         6.42968545756998    1.81973138587083    4.11837982965722
H         6.65961580483052    3.24980492447710    3.16990262058342
H         7.05280433831972    0.25648880326380    2.28856715142567
H         8.24775469521089    1.43204586497347    2.27913886369765
H         6.81691429686160    2.63636306185535    0.65808206091286
H         5.98614230528877    1.28662532474754    0.34176464705258
