39
 energy: -54.533472714847 gnorm: 0.106499832131 xtb: 6.4.1 (79825abcba525fcdf90b791dcacef51065a7a4e7)
C         3.27773826502022   -1.92129632744094    0.64194885467707
C         2.34280015044877   -0.78954079436476    1.08076581251497
C         0.91220034784034   -1.15802837905321    0.65897670035788
O        -0.11064563595537   -0.24858911549258    1.05308942158878
C        -0.53282990613712   -0.24470933566278    2.40185963012410
C         0.59887709130546    0.09177749803571    3.35469776327270
N         0.97281071139417   -0.63140320105030    4.36031029905581
O         1.10574465071202    1.32727619849513    3.37508537530035
C         1.50023469224910    2.00046211962493    2.16442578438408
C         2.89999265579547    1.66500502401475    1.62083284701497
C         2.80482913936904    0.57647322447597    0.52295181140069
C         4.05148423072818    1.26139060963256    2.58098657664132
N         3.71779708412992    0.61826904360719    3.75046364050146
N         5.18134663864313    1.74268332717001    2.18610891647860
C         6.32714516251370    1.52526581604521    3.08184885295982
C         7.62946042969946    1.99942996143876    2.41623646992430
N         7.76039169573788    1.56974452721047    1.02220663664495
H         2.83385670532075   -2.84074441555429    1.03661115189574
H         4.26978043547401   -1.66912607562051    1.03213515134508
H         3.34142364072332   -2.04901066420771   -0.43674019223283
H         2.51584341070803   -0.83611606218266    2.16850856356195
H         0.67826053534355   -2.18080513672742    0.94574843663403
H         0.80102658659386   -1.09673291357449   -0.43102045337660
H        -1.00618413252468   -1.18696562525436    2.70312803172883
H        -1.27714196237643    0.55138006441043    2.36761483893191
H         0.56016919820279   -1.57653324938473    4.37196522776846
H         1.50380463883884    3.06987689364141    2.42030776565254
H         0.80799789756109    1.89963512146973    1.32688118653917
H         3.19889358465065    2.53653914627966    1.01119991276802
H         3.81578442307963    0.50491731042886    0.09884050122613
H         2.06174891034946    0.86629800402271   -0.23443002344519
H         2.74289418774233    0.48760552022829    4.01817247500412
H         4.49519093266070    0.12213674295033    4.16875904576341
H         6.39983753648933    0.45028341857006    3.28621302564202
H         6.11208118971692    2.05375888453993    4.01858781655832
H         8.43007559707613    1.55970453451306    3.02143349462912
H         7.71346571162846    3.09085752299189    2.43145146935939
H         6.99749680260678    2.05959330385422    0.54848263508355
H         7.75731014605738    0.55607221030145    0.93928393967957
