39
 energy: -54.529584178977 gnorm: 0.106454621024 xtb: 6.4.1 (79825abcba525fcdf90b791dcacef51065a7a4e7)
C         3.77182478754260   -1.36914368364319    0.44389313867927
C         2.63300753592970   -0.61379086779718    1.13676944079959
C         1.28124121559958   -1.09566813189579    0.58829240532864
O         0.19748836063965   -0.22284106079049    0.89205408856090
C        -0.44346234206632   -0.41054163364790    2.13760069336242
C         0.33328288318486   -0.30311007912588    3.43645013807616
N         0.18218641764354   -1.20529398477437    4.35149509706127
O         1.24745882854530    0.62992961577697    3.71485027930785
C         1.41630872389379    1.82069751607031    2.92234802570845
C         2.71581808188339    1.78784026438383    2.09921807817042
C         2.77829264785440    0.89558133388669    0.83459511280294
C         4.01410105121625    1.44108110333751    2.87700470996458
N         3.98863541677239    1.02505052148335    4.18807264189822
N         5.02545536369250    1.84781128834645    2.18715463499368
C         6.34211315318404    1.49327602748851    2.73778307602486
C         7.32735011540140    1.14470556366713    1.61008484673126
N         7.35048844090362    2.00271968030023    0.42333797504513
H         3.69819576577027   -2.43019021446544    0.70260722466954
H         4.76126372043783   -1.01967959246288    0.75832642844230
H         3.60780999574365   -1.18732352040103   -0.61628487253942
H         2.84228652506279   -0.85130748208103    2.19274561105359
H         1.00024626032445   -2.03633007103815    1.05651789599914
H         1.38004195237726   -1.16768255565875   -0.50224088912922
H        -0.81865417433685   -1.43505411593917    2.24841152057717
H        -1.24086305570137    0.33164808217165    2.18490808985357
H        -0.46478962431630   -1.95811618202748    4.07156582199665
H         1.44929526182116    2.68717095481999    3.59856688545713
H         0.57367986598286    2.01611453241099    2.25704538733893
H         2.76710730895060    2.86103981848946    1.84196735288976
H         3.75646808792528    1.11994976688705    0.38754607236779
H         2.04427479550053    1.11917087978545    0.04654729148898
H         3.12665431404706    0.50549461428090    4.35001980260160
H         4.84132218776725    0.66334624569253    4.59740720944557
H         6.24938802028417    0.63783117861358    3.41767439816160
H         6.83397929898364    2.31229645177077    3.27658782640896
H         7.02583035840439    0.16095083313164    1.23336346089726
H         8.35812400761390    1.05744006537935    1.96840372888566
H         7.47719590318660    2.98232633783743    0.68921555341584
H         6.41198686151967    2.03720654229728    0.03289889181579
