39
 energy: -54.528868302664 gnorm: 0.111066179668 xtb: 6.4.1 (79825abcba525fcdf90b791dcacef51065a7a4e7)
C         3.65371095980986   -1.17179189824373   -0.03385273506237
C         2.63365062640950   -0.46025946508154    0.86098728849845
C         1.22025778046048   -0.96622261736139    0.53444960573097
O         0.06071999040283   -0.41541426211513    1.15145913285405
C        -0.32288236340168   -0.85372751215593    2.43915722747169
C         0.63807973835353   -0.56915612115292    3.57821628560816
N         0.73648031210844   -1.31391410232792    4.63165166025745
O         1.46003865294229    0.47930688474882    3.48389636892383
C         1.29753407169420    1.61273562307967    2.61015163355816
C         2.61622075830801    2.02910383573627    1.93557767773600
C         2.77509185403706    1.07356726689228    0.72685515201771
C         3.90479488144056    1.98808890740931    2.80081006962721
N         3.70782460474858    1.97796403211645    4.16232732507384
N         4.97500486929419    2.08068450388571    2.08650151182941
C         6.27871178053124    1.92387417806195    2.74849354768854
C         6.97442635600248    0.69711285701811    2.13617466201613
N         7.59585144645388    0.89526368638972    0.82481702689450
H         3.76003144782100   -2.23483057212491    0.20451395024723
H         4.67330201409391   -0.79132491979403    0.09129437916212
H         3.39889762782886   -1.07975774344667   -1.08767279175651
H         2.84664116116311   -0.64003804649673    1.92757633573576
H         1.24299389490533   -2.03032499822002    0.75851955218544
H         1.05247746245122   -0.75817748330376   -0.52987060436503
H        -0.64029234853631   -1.90001977849089    2.52399334959540
H        -1.21646582927113   -0.23480311518190    2.52502133081958
H         0.28020980484834   -2.23881854892975    4.63862601846269
H         0.97771462290154    2.42224338209587    3.28212558455934
H         0.56672858350862    1.45042879348176    1.81616256581506
H         2.41665735695337    3.01785986298126    1.48490956375395
H         3.79959899351610    1.31489383772281    0.41194589520376
H         2.12615443529869    1.41801966796236   -0.09169639125655
H         2.99446063571717    1.33662993529508    4.50726073521001
H         4.58309149385163    1.86930135898861    4.65988113807486
H         6.32231789431787    1.72126939829700    3.82538065853785
H         6.85937995528375    2.84147877983093    2.59401513456063
H         6.30422487528373   -0.15444839311804    1.97406376012640
H         7.77962800856671    0.31854887787530    2.77401642585275
H         8.16504581378888    1.74429365690650    0.86406944046121
H         6.94682865153621    0.95410670997009    0.04396867737279
