39
 energy: -54.523313115740 gnorm: 0.108974144051 xtb: 6.4.1 (79825abcba525fcdf90b791dcacef51065a7a4e7)
C         3.70050139513428   -1.41542226239535    0.01729742876341
C         2.62639841104513   -0.60161289543090    0.74637717867703
C         1.21497989313325   -1.10406226701102    0.40616055230850
O         0.24898565856560   -0.48263435717595    1.24836065450169
C         0.35226432627971   -0.85056037794467    2.60902212345804
C         0.67508060066820    0.20341300954253    3.65152600887943
N         0.61990778372746   -0.00830140717358    4.92675391107781
O         1.03537951794042    1.46580654717784    3.40589488550739
C         1.22260848787169    2.02827529931086    2.09323630517494
C         2.67794362824979    1.85661314489334    1.62432388587804
C         2.75821693409935    0.90123764785251    0.40772444570444
C         3.73406655731121    1.58487516194023    2.72953674315360
N         3.64253297741657    2.25516027694942    3.92743846732287
N         4.80858924668244    1.03927626235139    2.26922930286415
C         5.99825376387761    0.79482425690919    3.09833497045911
C         7.26582868250294    1.11656791824801    2.28986024992078
N         7.34240885779613    0.57773767651639    0.93012160220957
H         3.60714631228716   -2.45730228297691    0.33970215242808
H         4.71870008367763   -1.13920672493178    0.31218597736916
H         3.58576174708709   -1.33026495426882   -1.06136836062673
H         2.96167287349272   -0.64205302707691    1.79578327379003
H         1.26454912489157   -2.18172831067532    0.54478577879728
H         0.98221082372915   -0.90950478971906   -0.64843722965396
H         1.01153056589785   -1.71379040413575    2.76026937049686
H        -0.68048669199531   -1.09629473904711    2.85796274990015
H         0.40410137662192   -0.97383722600358    5.21804043256988
H         1.04114339472070    3.07241425066144    2.38646073779311
H         0.60612184600608    1.71000217020174    1.25092682987096
H         2.99118163306246    2.84036266407390    1.23102418617967
H         3.81996385639911    1.03880662008528    0.16116917535014
H         1.98120136247475    1.23437858278119   -0.29587898893835
H         2.72876225395125    2.51632369818759    4.29621125599427
H         4.26351896727444    1.99084812457646    4.68240534653361
H         5.97608918411620   -0.24879323231010    3.43450057822549
H         6.05422672332144    1.47302359526457    3.95853843610116
H         8.08667692268508    0.70480936158061    2.88758057959235
H         7.28137887841911    2.20856642070843    2.21370272925289
H         6.37585165491211    0.57332016264058    0.59527457654183
H         7.55976654841277   -0.41482000071923    0.97486673897496
