39
 energy: -54.525888749076 gnorm: 0.111725194747 xtb: 6.4.1 (79825abcba525fcdf90b791dcacef51065a7a4e7)
C         2.58370244753636   -2.53164948421156    0.31825901080525
C         2.08860118946608   -1.28749874041590    1.06290916245136
C         0.57876317442334   -1.16053353208829    0.80879511504187
O        -0.11458271351873    0.05442548162567    1.07668425648657
C        -0.43740138583675    0.19857561216401    2.44505720797449
C         0.69166570112675    0.37195700926219    3.44357162596567
N         0.93270763371890   -0.41432513167201    4.44243719973320
O         1.41136874550190    1.48554026122355    3.28311198500500
C         1.83582106525809    1.94718650823985    1.98649279871680
C         3.06258815181730    1.14804042940782    1.51346514233212
C         2.83105802442275   -0.03552692190981    0.54142480064398
C         4.17917203050988    1.00446782964967    2.58274526089828
N         3.99842192137304    0.22796940513472    3.70390923964971
N         5.29402657283771    1.49113758558735    2.15331305740862
C         6.45028654033779    1.50284437342437    3.06182860932959
C         7.28528215462898    2.68989462082776    2.55429479100513
N         7.98879064305780    2.48493428340150    1.28616277323624
H         1.89411502762196   -3.32674169851685    0.61904384191547
H         3.61938482715163   -2.76198859832829    0.59081863276351
H         2.49260862595738   -2.27723423677961   -0.73573891960419
H         2.37485554829567   -1.31032814098717    2.12725627475339
H         0.03043857017041   -1.96498064885606    1.29381380097673
H         0.42050033783003   -1.19089064890888   -0.27667338086795
H        -1.03632348616997   -0.64152647969549    2.81680253412470
H        -1.01420725616461    1.11476460824684    2.57476531811729
H         0.45033604337115   -1.32564793174085    4.46452944834596
H         1.96817056800559    3.02955277638524    2.12827838490315
H         1.01659602403591    1.77073759349373    1.28751144441358
H         3.52702896222350    1.90878899113379    0.86068479188795
H         3.81555321564933   -0.41589365331592    0.23628286405398
H         2.43420437562499    0.36322199083430   -0.40372087443197
H         3.04642395480881    0.14624296157730    4.05915183558568
H         4.68461546370205    0.47481669144988    4.40652175577551
H         6.99247504915608    0.54963030326801    3.05471460874851
H         6.15763686217726    1.58650887030637    4.11558082924211
H         8.05209761798863    3.06245328720193    3.24262655826377
H         6.59986685413437    3.48744318290584    2.24995178522432
H         7.28056564961612    2.23607370707776    0.59128102488980
H         8.69235040433338    1.77379962982613    1.46976125699285
