39
 energy: -54.527904394700 gnorm: 0.103650433631 xtb: 6.4.1 (79825abcba525fcdf90b791dcacef51065a7a4e7)
C         3.49648526233043   -1.36736813050161    0.01512801142603
C         2.51699021111856   -0.68542715223541    0.97590172422390
C         1.12680586556743   -1.26213818662765    0.66752401575289
O         0.10007090614777   -0.34547083734689    1.03379551296801
C        -0.53423618726777   -0.47387847032920    2.29021967201092
C         0.36703938132941   -0.35597211663315    3.50499745072919
N         0.22540773668246   -1.08303658605118    4.56584191215258
O         1.39206517740906    0.50017383160566    3.51611679729878
C         1.44404810319063    1.69969122850304    2.72053265947882
C         2.78420887967373    1.79003265252313    1.97009636782154
C         2.58321486527808    0.84416130182441    0.76004302148792
C         4.09537855956591    1.58273364627098    2.77544957200466
N         3.96379678509970    1.25771971651562    4.10574323284340
N         5.20330068728965    1.61853155789555    2.11561084273854
C         6.45855569052811    1.67395220920408    2.87963838129311
C         7.61776609519475    1.27115827736427    1.95341766426487
N         7.59473393044993    1.92069347425053    0.64091422022255
H         3.42203670557945   -2.45885318604071    0.05106875275856
H         4.50234770947830   -1.03861784949875    0.29823018233475
H         3.33367197789021   -1.04762075077330   -1.01209654299751
H         2.81409853915343   -0.81779433595476    2.02923124634388
H         0.98578758483706   -2.18221530497708    1.23020518659867
H         0.93369611236184   -1.36482276993903   -0.40782477909505
H        -1.09631456091965   -1.41114678172146    2.38115811609171
H        -1.25682110115183    0.34143584867040    2.24477657924525
H        -0.52025266231199   -1.79174328459716    4.63936091164820
H         1.40132108831915    2.52262260455588    3.44860864622061
H         0.72289579088778    1.82243242474742    1.91077173154897
H         2.98329514574385    2.79549718511057    1.55782032456894
H         3.38209194753476    0.92517996454555    0.01020796569558
H         1.67484412720873    1.19606746812351    0.24933907662733
H         3.11359139256377    0.85188274358836    4.49513220035341
H         4.76928585016003    0.99478302937363    4.66028011744393
H         6.45514804598042    1.15806320142206    3.84735887952779
H         6.63103718573902    2.74122092205749    3.06463824259163
H         7.59636055561867    0.18075336676651    1.84775088551019
H         8.57122663808669    1.57326861825483    2.39855229509613
H         7.43414995653738    2.91380039905788    0.82618778751402
H         6.73763838758649    1.58101337856844    0.21147051143271
