39
 energy: -54.523196641016 gnorm: 0.097659781568 xtb: 6.4.1 (79825abcba525fcdf90b791dcacef51065a7a4e7)
C         3.44624807992320   -1.86814517080723    0.92113041236072
C         2.34514222515459   -0.82768379114293    1.15035995269673
C         1.00526115177484   -1.24569753006271    0.52562947742515
O        -0.01374554352334   -0.28508298080443    0.78536695185376
C        -0.55487066757634   -0.34044237722899    2.08980345734531
C         0.31530560867036   -0.25241130424326    3.32953260456982
N         0.20253693285276   -1.14844967958084    4.25607007532469
O         1.28221769530347    0.63256884500153    3.58581084967006
C         1.58637338161607    1.78891950978729    2.78279106494464
C         2.85692963848295    1.67069423353022    1.92310700244628
C         2.67650083924391    0.63730412436906    0.78343570456479
C         4.16899842255483    1.34922250939566    2.68852458214754
N         4.10028849979628    1.42342620365390    4.06053107959976
N         5.20640041646575    1.25293027389944    1.92781109378080
C         6.55557538462454    1.16687766253904    2.50642712498359
C         7.55803977600974    1.56197819418594    1.40967863467545
N         7.55649059526032    3.00238673081248    1.14451341444446
H         3.16904749914570   -2.73545803590246    1.52866821668026
H         4.44547071859590   -1.57587912620967    1.26189062179053
H         3.50333628182740   -2.19427813346556   -0.11536129622994
H         2.15932977689306   -0.87276038783747    2.23605758534643
H         0.72201587309636   -2.19987144837011    0.96422086523617
H         1.07030954825207   -1.26553140216756   -0.56962659018977
H        -1.13468639837290   -1.24214395241336    2.32093495866969
H        -1.36671520652150    0.38647230643320    2.05192273321665
H        -0.34337076359219   -2.01045670361493    4.10570939412795
H         1.84918341829104    2.54251965264302    3.53919968730114
H         0.73108936768246    2.09244193776620    2.17681895195045
H         2.98385617028635    2.63717150489269    1.40312897478858
H         3.68558594609458    0.73371973397186    0.35979373368280
H         1.98727324031965    1.16133958013825    0.10509506094636
H         3.16544915917577    1.47096334836200    4.46425408718858
H         4.76570621783369    0.95029618986729    4.65955257237506
H         6.74950161897443    0.16991009900088    2.92005055368643
H         6.55627264647729    1.87616648813201    3.34305499679756
H         7.27841971217065    1.12209955586206    0.44587059400597
H         8.56283574495712    1.29195589481432    1.75023042941732
H         8.08697182712161    3.49425641329480    1.86772068058324
H         6.57432433426752    3.25433013223293    1.22383046620339
