39
 energy: -54.519222474786 gnorm: 0.109681204405 xtb: 6.4.1 (79825abcba525fcdf90b791dcacef51065a7a4e7)
C         2.84873735925820   -1.81814126746030   -0.32991399131299
C         2.26567101910792   -0.84373816562184    0.69873191705161
C         0.73941395286790   -0.98801070270021    0.59858327665516
O        -0.00244961502917    0.03508749911496    1.25549045228567
C        -0.34595588322019   -0.14286583038166    2.61481813573966
C         0.89488434798434   -0.04609312452834    3.48247890233478
N         1.45139271754294   -0.98038644672353    4.18352645986363
O         1.43902564706661    1.16989205683691    3.57775595362354
C         1.54264080919527    1.96518785424061    2.38140030926812
C         2.81496428955282    1.66647965247979    1.56941911259064
C         2.54478357394092    0.65301920812026    0.42959430595791
C         4.07910795126756    1.48923574509837    2.45330710092410
N         4.32621246919758    0.41510580474162    3.27660124790486
N         4.87661588985606    2.44923656243444    2.12690306567815
C         6.31345836026383    2.57863175957859    2.41188591280903
C         7.13819419650435    1.29271564165575    2.23831445302928
N         7.29293641039638    0.50779105600676    3.46511516193291
H         2.58973735332303   -2.81041648868442    0.05281676703465
H         3.94195721183356   -1.76990240512568   -0.38017540983372
H         2.43109547274216   -1.69195143284052   -1.32670294322829
H         2.61597400036688   -1.04566227761956    1.72431077020643
H         0.30618266515853   -1.92380854139794    0.94446073514259
H         0.44280745786279   -0.90081863877721   -0.45433299082673
H        -0.78384720789126   -1.14697996857598    2.66658474027975
H        -1.02083263713983    0.66386765132075    2.90231411411991
H         0.90222970414653   -1.85336918256268    4.18441763486748
H         1.51081243992946    2.99179033528387    2.77409686815700
H         0.67447755684952    1.97977334425189    1.72040209304491
H         3.06950928284054    2.59813782258575    1.03296248830570
H         3.50201237679283    0.61943966983279   -0.10855685047034
H         1.79538284311133    1.18049067974857   -0.17865420620754
H         3.69868901806410    0.11668568075829    4.02248084371230
H         5.22225542874734    0.56872494090173    3.72265918134412
H         6.52970541540795    3.00525842107831    3.39873085426977
H         6.72284718100942    3.26497319551332    1.66063792487876
H         8.12450839316267    1.58302729922523    1.85948734595811
H         6.82275760401894    0.58976063445148    1.46058923666640
H         7.93420604095592    0.98730792780231    4.10167757125539
H         7.78365516515111   -0.36364259879726    3.28014023486693
