39
 energy: -54.531120873048 gnorm: 0.097581725792 xtb: 6.4.1 (79825abcba525fcdf90b791dcacef51065a7a4e7)
C         3.42498592029783   -1.74786575298010    0.42621296315277
C         2.42579416717775   -0.80793099194366    1.10861948518405
C         1.00373727514880   -1.33006144868020    0.85280915053375
O         0.06713736739494   -0.28358489631653    1.09005577764699
C        -0.53327852327940   -0.34631207781478    2.36794534777583
C         0.48511693564642   -0.22482157246608    3.48597727159670
N         0.68133353003129   -1.07813160610081    4.43857072573826
O         1.12961906353784    0.92941700859734    3.67607652929079
C         1.42437136501944    1.89350980625694    2.64741503007517
C         2.73244875703955    1.69263629839535    1.86260265655697
C         2.66193105904731    0.66582926636806    0.70502117783199
C         3.99287350646350    1.57815032888232    2.76202192315583
N         3.83086853680260    1.27254688775695    4.09355861767758
N         5.08237630853126    1.85559282155464    2.12943248903183
C         6.44441796247249    1.56348834537334    2.60059292041484
C         7.25335747255082    1.11003835921500    1.37425833721447
N         8.09226124770657    2.20761371342360    0.88778064800891
H         3.11662688740682   -2.79339405260618    0.52600891869089
H         4.40772859662644   -1.64516216623364    0.89913119348157
H         3.62582295159962   -1.49702492708425   -0.61334473252060
H         2.67086519302402   -0.96562295469899    2.17180853288534
H         0.70670723802880   -2.20374178701182    1.42856429264558
H         0.92142533666153   -1.61829623352487   -0.20282146082096
H        -1.07645570560893   -1.29847263376176    2.39992375641993
H        -1.20627906525040    0.50879187707129    2.43721999788398
H         0.04802975444500   -1.88255515602425    4.31403660209786
H         1.40191918271930    2.89017712325120    3.11140473718458
H         0.62629383509035    1.95738517483080    1.90590912394797
H         2.92405512251591    2.65863956377808    1.36191263232676
H         3.66200849089040    0.74654560978540    0.25741505429261
H         1.94908932300116    0.98406674340445   -0.06981779041797
H         2.88229451150367    1.00263891991855    4.35149977715831
H         4.53445112870064    0.93724120564985    4.74008868097509
H         6.40073096407286    0.78640045460542    3.37316129942206
H         7.00262705527354    2.42778329603310    2.98063786780462
H         6.63377129170933    0.73570366232314    0.55170558360553
H         7.86927606960193    0.23678405608681    1.61211062020586
H         8.62173554544628    2.70242160078650    1.60972039162228
H         7.52333486661282    2.95919828581204    0.50586359004855
