39
 energy: -54.522745177758 gnorm: 0.118550864587 xtb: 6.4.1 (79825abcba525fcdf90b791dcacef51065a7a4e7)
C         3.05432670836658    0.13668752157214   -1.30022229346156
C         2.74730845697024    0.22818681609736    0.19807935629493
C         1.86836620932982   -0.97152530014266    0.58337958529729
O         0.65848483165017   -0.74988782125598    1.30148986327227
C         0.72119017022238   -1.21130126340999    2.63588161155179
C         1.71447512913472   -0.61303179775607    3.61432079292808
N         2.35760726055081   -1.33078325817851    4.47762093589741
O         2.08147892198796    0.67096157677232    3.59295186558731
C         1.34362754748582    1.61031074414084    2.78815572451447
C         2.29979373717144    2.29944755932457    1.79912397807086
C         2.17657635583708    1.65122169072660    0.39772431953872
C         3.69289737838622    2.17133596787976    2.47260915603417
N         3.78320040827045    3.03406471120377    3.54039824906417
N         4.59798723808116    1.42397689720797    1.93742054382760
C         5.92659620700110    1.38570742960757    2.56655352247260
C         6.04276168357102    0.06448287132896    3.34422168826533
N         5.99721304112572   -1.14534542718190    2.52000536328844
H         3.76432720143596   -0.69415623387646   -1.36163812906251
H         3.53724001198662    1.01886210316712   -1.73444065950203
H         2.24321932382133   -0.14669462176807   -1.96785707503940
H         3.69460479474728    0.25922543662704    0.76107469500384
H         2.50715907323282   -1.68007306717832    1.10581798922780
H         1.53698791846184   -1.51083042766754   -0.31302932041267
H         0.82144825858161   -2.29984798836855    2.72356354235077
H        -0.20891702544786   -0.93031882797908    3.13073608263334
H         1.95282913946165   -2.27881937851982    4.44503487974934
H         0.96348147015116    2.32740088521338    3.53004991070737
H         0.49861048183008    1.13171156496081    2.29043310953685
H         2.06461220298636    3.37743426644580    1.74255459906195
H         2.74869254142650    2.33232177001218   -0.24710665161390
H         1.11596325821921    1.62891441666219    0.10721425015976
H         2.93333610691374    3.33334437235336    4.01719903748068
H         4.46196034403889    2.68303915529160    4.20487211420074
H         6.12323265951026    2.23726812510862    3.22898429586221
H         6.64381910702029    1.58086096916531    1.75999061428786
H         5.20661126192212    0.00672207605716    4.04999976688119
H         6.97302357632506    0.12985869824872    3.91766856057103
H         6.80045594294953   -1.13321586411233    1.88673718536638
H         5.20304394717481   -0.99762421391432    1.90203195870349
