39
 energy: -54.518123238071 gnorm: 0.113284256507 xtb: 6.4.1 (79825abcba525fcdf90b791dcacef51065a7a4e7)
C         3.56482171651030   -1.07988681519008   -0.16377914879715
C         2.54019219362913   -0.53610840192761    0.83721013588911
C         1.15981931315110   -1.05185207444988    0.40260214696610
O         0.12295220024037   -0.29085652670765    1.01449337405273
C        -0.27404350435644   -0.68629409459522    2.31197524447535
C         0.65544544974078   -0.51016132005676    3.49810850933514
N         0.87376252133664   -1.45375038719273    4.35604239571771
O         1.28942936842086    0.64521119328249    3.71482524376186
C         1.26002304849278    1.73039524387801    2.76824763581367
C         2.64116391311778    1.86957651786084    2.10460196463374
C         2.70301469243516    1.00139504066829    0.82329961930588
C         3.89563026553155    1.61375400747268    2.98301053031469
N         3.82512936198913    1.76913255867101    4.34811717727990
N         4.93209394752057    1.68062117077478    2.21787531403267
C         6.28756761475624    1.82690548540604    2.76902563686087
C         7.30330651421277    0.89391588787630    2.08953949335596
N         7.35828805768567    0.92088309634984    0.62620715333706
H         3.67732946294160   -2.16697594414521   -0.10251593085230
H         4.52780072026420   -0.67195178225145    0.16217068434958
H         3.24597095704580   -0.83926736331896   -1.17589243705686
H         2.79905375995244   -0.86576663747645    1.85682459301173
H         1.05045071707911   -2.12228506671431    0.56150422644523
H         1.06648533677437   -0.69403256501636   -0.63057958858953
H        -0.50579186776793   -1.74989366840503    2.44510085716840
H        -1.16560141011825   -0.07643503031238    2.46072969780135
H         0.30306406889474   -2.30059962973663    4.21171881212106
H         1.09412370158643    2.64526813680787    3.35529216755284
H         0.49126861842605    1.67072995486235    1.99604592243434
H         2.72906417572633    2.96009071634755    1.95092006507642
H         3.69731683203577    1.28194507567274    0.44956687101695
H         1.94397578571918    1.44298775029771    0.16099328748648
H         2.94410209000478    1.95877480785443    4.82456589806894
H         4.65743130685526    1.59592627752286    4.89832854220725
H         6.34654432661395    1.71795439191997    3.85865284166665
H         6.49060639869988    2.86791549611484    2.48954266957456
H         7.19092608962952   -0.18372892987790    2.25281477321054
H         8.30454711806679    1.09591782037366    2.48351280920634
H         8.16108045690950    1.46860961263007    0.30699735221085
H         6.51180409988255    1.37732352297823    0.29523240974415
