39
 energy: -54.522719617110 gnorm: 0.122718325801 xtb: 6.4.1 (79825abcba525fcdf90b791dcacef51065a7a4e7)
C         3.22034250958605   -0.87575470406395   -0.57228053012627
C         2.42729758445443   -0.21419581703425    0.55951439784837
C         1.02020724397694   -0.82205999741442    0.45509769493240
O        -0.07698613246118   -0.31244138700368    1.20681178624794
C        -0.00301242819607   -0.69355196399157    2.56575192335284
C         1.28397115656543   -0.41395434884303    3.31900025021102
N         1.82578629551778   -1.38615732455762    3.97879641057268
O         1.66678671768508    0.82310095723259    3.64600763045943
C         1.42842641902654    1.90784623506244    2.72894145112188
C         2.58926888026188    2.09218648584040    1.73606152237982
C         2.39843010159985    1.32392184598392    0.40465237283991
C         3.97998345414056    1.82214514190445    2.37145372822689
N         4.16729949354150    2.06613393475639    3.71235313588465
N         4.85185272598820    1.56856717587897    1.45510102400049
C         6.27147907539963    1.39350451721928    1.79640548627535
C         6.68967231652768    0.17689322436544    2.63834841466215
N         6.69734271648124    0.60400159816542    4.03928072658001
H         3.36831758451072   -1.95404016250325   -0.45575673063067
H         4.24618690310578   -0.52671217925072   -0.73289011682955
H         2.68309475451706   -0.69812263686429   -1.50166125679002
H         2.96753631216093   -0.52547447161960    1.46865972364460
H         1.21043947960265   -1.86552729453624    0.69598326210890
H         0.73971693912581   -0.75362247250269   -0.60360529664597
H        -0.33562823749364   -1.73686915226756    2.62516364285137
H        -0.74596321672968   -0.14369235074367    3.14420676855271
H         1.51276710600804   -2.36862071101771    4.00034495762037
H         1.26529019493661    2.84451790746000    3.28136252054829
H         0.60045306533038    1.72688557120204    2.04151713973954
H         2.60115013478743    3.11716528567738    1.32394128301702
H         3.18050456291761    1.68698977603119   -0.27620183044474
H         1.40104544106458    1.61053201418366    0.04013581708861
H         3.31461340087528    1.88744685702671    4.24166778526338
H         4.94946199393348    1.51972441842534    4.05164352607912
H         6.63072836245099    2.29195113729750    2.31251561309259
H         6.66732055668055    1.26728458591618    0.78131171216693
H         7.63284140662580   -0.22769935392206    2.25449500065907
H         5.97682364471722   -0.65391682803012    2.62815390366891
H         7.00800347817847    1.56438319668869    4.20520825957960
H         7.33452794382091    0.07232713524994    4.62727263647743
