39
 energy: -54.516209355275 gnorm: 0.112943318473 xtb: 6.4.1 (79825abcba525fcdf90b791dcacef51065a7a4e7)
C         2.41681653261369   -2.67204496376530    0.51257236679125
C         1.83119891681375   -1.40177536868303    1.13787816085867
C         0.37820106340112   -1.12767926562799    0.72077686028174
O        -0.07899052844455    0.13237685802952    1.20228794898366
C        -0.56798410251074    0.07343281506724    2.52699416761718
C         0.46637389375024    0.27757984484509    3.61800843720002
N         0.32622484038522   -0.21221603723676    4.80734921236176
O         1.60401669474160    0.96433155110814    3.48411163537918
C         2.05884309058762    1.63556337176018    2.29370031839710
C         3.18840985382321    0.96258988261272    1.49461791919840
C         2.75354113238378   -0.26080461393151    0.64993137184867
C         4.50340862188804    0.83353331034257    2.31000446578855
N         4.62851013930287   -0.32368556929659    3.04336871607270
N         5.37524103642195    1.76951298133655    2.14264147128781
C         6.67131543893833    1.83197120412907    2.83456975779462
C         7.65351478691657    2.43011602350733    1.81407784432559
N         7.69730438170339    3.89368356153030    1.78025069555222
H         1.67569980257244   -3.44951385139911    0.72343268626086
H         3.41870744604121   -2.87124696456892    0.90819340511106
H         2.41986382984710   -2.46566211470812   -0.55575982527736
H         1.98889781912105   -1.50210481007243    2.22432308037270
H        -0.36734710970158   -1.87862391494573    0.97232846492824
H         0.31881528131526   -1.12063567247078   -0.37495770883708
H        -1.18380402222777   -0.83038221602020    2.60797565136525
H        -1.24925431091625    0.91751889517004    2.63799447321856
H        -0.57637878033162   -0.70493397490876    4.88618703995154
H         2.30933837139868    2.60301420202678    2.75242385658659
H         1.19469566086065    1.79829463993465    1.64747546215892
H         3.48274937174453    1.75080656370537    0.77862593987020
H         3.63681312837284   -0.67800932474471    0.14714709496653
H         2.23785143595359    0.37153168270058   -0.08763816320679
H         3.80099023173775   -0.59892905118928    3.57122141054878
H         5.45600203140324   -0.35416695039012    3.62628170830199
H         7.04738576743639    0.88874990277968    3.24874450989637
H         6.48243274297114    2.46595148452927    3.70945812141944
H         7.25303283839334    2.07196720743998    0.85911702317520
H         8.70967246794779    2.14202201653754    1.82001910380683
H         7.61415091169285    4.31679974973945    2.70784600734075
H         6.95684865959588    4.30477351240669    1.21709209340353
