39
 energy: -54.526424258224 gnorm: 0.100017031177 xtb: 6.4.1 (79825abcba525fcdf90b791dcacef51065a7a4e7)
C         3.53911342394556   -1.30492807359234    0.29765688312125
C         2.40786498254930   -0.55094909003891    1.00429176097103
C         1.02901324436064   -1.08444982426525    0.58661985706205
O         0.02789620184528   -0.17149143770647    1.02581250218755
C        -0.37259240191424   -0.42306680423897    2.35763621280992
C         0.60963987017449   -0.12328065519402    3.47443191572473
N         0.94494658179215   -0.90984381466945    4.44549372972582
O         1.12935473691385    1.09670872920966    3.63352233625582
C         1.40609068341816    2.09617574219588    2.63403185898797
C         2.64728667319414    1.91389229770001    1.74321631075824
C         2.50347780740349    0.92645871549344    0.55848247322888
C         4.04301815272060    1.66859967055096    2.37764343267108
N         4.19397065941713    0.77479486206794    3.41251316416088
N         4.99477331023251    2.25626062565617    1.73501071180099
C         6.40879053391826    2.33328859453106    2.13136487196697
C         7.21239378695083    1.03607323261698    1.94334723253686
N         7.18400617915674    0.00065840346979    2.97881911099824
H         3.91709994468328   -2.25552368699763    0.68710280212508
H         4.33067682942638   -0.54801792910866    0.31995623039447
H         3.33527349626514   -1.60082193888850   -0.72939372161856
H         2.50957695642019   -0.67872228388181    2.09453311364219
H         0.81764846397221   -2.12469557180838    0.82379464477500
H         0.99441389978317   -1.09001104517951   -0.51018573064248
H        -0.69183466219826   -1.46146849253331    2.50756987417684
H        -1.18006315142292    0.27255921631105    2.58791193348232
H         0.54296892208169   -1.85720052725751    4.37760497246572
H         1.51944916931296    3.00569545868767    3.24153496484123
H         0.56909946870419    2.24030231289663    1.94882236445327
H         2.67809696934172    2.90389051125573    1.25380842804848
H         3.32634358435353    1.13159170331070   -0.13996839054522
H         1.51952941557727    1.11664758892505    0.10519709562662
H         3.39442048612265    0.30283795631003    3.83340843910586
H         5.10786818687697    0.35735601410025    3.53898694025908
H         6.51656630163838    2.73716673578045    3.14522032082345
H         6.75886507963027    3.08302603478581    1.41137952210713
H         8.27729935684641    1.24613095477518    1.79348592827125
H         6.78690250852160    0.52342627373138    1.07463970423243
H         7.77599489185585    0.23700782181440    3.77885860125499
H         7.53515708066199   -0.88047013864325    2.61177310429090
