39
 energy: -54.523318267303 gnorm: 0.101338724845 xtb: 6.4.1 (79825abcba525fcdf90b791dcacef51065a7a4e7)
C         3.38953352581620   -1.56075453517227    0.14831520423150
C         2.48523746534170   -0.63801217534783    0.97192637474261
C         1.06395231783909   -1.14120190489910    0.67687794999488
O        -0.02227917119650   -0.35584171949821    1.15846807490232
C        -0.39999310835773   -0.42581045787869    2.51856816248521
C         0.77927561737301   -0.43110754609866    3.47312662522222
N         1.14185045579456   -1.35196161294893    4.30657760255322
O         1.41908654933114    0.73904625220505    3.54502582305100
C         1.30319068409436    1.76806315885648    2.54393106871861
C         2.64071250148731    1.85059464449658    1.78790787096466
C         2.80073348241433    0.83611581683765    0.62837074949900
C         3.84968237881256    1.68870228705696    2.74859269108238
N         3.69723752638836    1.99618968340158    4.08082432027232
N         4.95492666670924    1.30331903519719    2.20630596806077
C         6.26948779218922    1.04393780926437    2.81221442204902
C         7.26349310761038    0.94574230152455    1.64336558683591
N         7.66326422504421    2.22460784787596    1.05194550852543
H         3.30086771464639   -2.58811130007347    0.51553503694282
H         4.43770235631177   -1.34924663503103    0.38620038771087
H         3.13575698185518   -1.34470688548961   -0.88747324904665
H         2.74333150357455   -0.79182934864605    2.03259845551405
H         0.96052391081974   -2.18108811091069    0.97850255763641
H         1.00694173527934   -1.06676110939222   -0.41647418779632
H        -1.04671142475755   -1.29623833062037    2.68222797021825
H        -1.05908394914699    0.42140891443636    2.71027126491623
H         0.65441420159406   -2.25941641674567    4.35767888360841
H         1.30824673202922    2.79466383757100    2.93788765096156
H         0.45855840607094    1.58189169817994    1.87851741801972
H         2.70599497854801    2.86989472370216    1.36680057532980
H         3.88838569534541    0.87703753365367    0.47884040949586
H         2.25238745944261    1.28008678837116   -0.21543034558732
H         2.83425896406662    2.09898824830173    4.61362548108411
H         4.50830380085606    1.95633029829138    4.68583855435065
H         6.26681723871615    0.10587095347855    3.38024565413886
H         6.60001005249418    1.83725398026998    3.49371408863721
H         6.84286807559521    0.41414523347554    0.78250225748735
H         8.15957769132318    0.43156500763480    2.00552112240005
H         8.03286726786653    2.77402628425276    1.83162995986890
H         6.86871516505184    2.74496056435238    0.68815700317467
