39
 energy: -54.528755764048 gnorm: 0.101226955088 xtb: 6.4.1 (79825abcba525fcdf90b791dcacef51065a7a4e7)
C         3.41400579377675   -1.73815696813792    0.41841973217635
C         2.41485583204693   -0.78680102350523    1.08487407562019
C         0.96818379187756   -1.16026740306503    0.72714820216972
O        -0.06797044671869   -0.20988989758451    0.95471247744376
C        -0.59363855681107   -0.18301917990904    2.26634759526963
C         0.38486800861704   -0.33376625146851    3.41599312220489
N         0.32636862926309   -1.38226962694110    4.17183155064069
O         1.22335695513008    0.67350878284736    3.67313256222650
C         1.52392771908120    1.69460616550425    2.70281526838106
C         2.85666769497335    1.65282772452026    1.93508759786038
C         2.81802616680709    0.66592289961427    0.74184579813496
C         4.19586285779735    1.46369371689919    2.69766036129054
N         4.17188901533233    0.51934867359680    3.69779371644802
N         5.13948502571962    2.27377642553288    2.35487285482642
C         6.48461866951473    2.13162219121214    2.93183237363945
C         7.49326809806569    1.43011191639812    2.00749142767761
N         7.51894875313611    2.03353364555340    0.67320717710039
H         3.00041004359064   -2.75016686756848    0.47271955256062
H         4.31092283741728   -1.91416188134847    1.02219529688341
H         3.65016505160828   -1.42929862691854   -0.59783425443666
H         2.52308829393329   -0.89764628719687    2.17633940844104
H         0.73611314610538   -2.14100883865015    1.13620517512586
H         0.85500071038552   -1.18078694839226   -0.36417167310518
H        -1.41794769974530   -0.88797886954900    2.42827369376307
H        -1.09128188874640    0.77372727282006    2.42734080064225
H        -0.43920246276291   -2.01236483626465    3.88799956837647
H         1.35357568089456    2.65260250470633    3.21502564060085
H         0.85241330186483    1.73329887493864    1.84350736123383
H         2.95022232029122    2.66688708502262    1.50672216653174
H         3.81351303337260    0.67430964483948    0.27713428849564
H         2.15157833085998    0.99142518101269   -0.07036686206732
H         3.26649886024628    0.29583273843882    4.10948039816796
H         4.95901023808037    0.49754359002832    4.33452302577988
H         6.58565572751064    1.60355192328776    3.88764058748525
H         6.91609870402003    3.10320670973475    3.20180610251485
H         7.26867849021701    0.37532529237286    1.81360688441155
H         8.51675392262718    1.49770189270507    2.39012815297056
H         8.02734641131511    2.92115128842709    0.67965788688643
H         6.54292477521685    2.26039955714968    0.49906273015971
