39
 energy: -54.519979069179 gnorm: 0.114465678754 xtb: 6.4.1 (79825abcba525fcdf90b791dcacef51065a7a4e7)
C         3.37969104509207   -1.99159433288803    0.93887233418076
C         2.41529860126079   -0.85349576494874    1.28847073469679
C         1.04681982087656   -1.17785870818754    0.67011851630663
O         0.08488658389057   -0.16019604114416    0.93024476320407
C        -0.58549639088131   -0.10365115236924    2.17315466741758
C         0.41511210651528    0.02727197673203    3.30608290584808
N         0.64800247140863   -0.85045145178640    4.22773191816830
O         0.99285258951684    1.22576632461263    3.42276470197106
C         1.49937494838974    2.00103019716419    2.31963309588253
C         2.87603997626568    1.68852050372714    1.70768687389441
C         2.82945700973096    0.51435712726074    0.69849377302560
C         4.07375724962291    1.50219765851851    2.67799081621305
N         3.75444875022830    1.08531512840286    3.94955681756883
N         5.21974039521251    1.91102348533301    2.24933692188912
C         6.45919304375246    1.56963804230100    2.96326111842677
C         7.66906763499931    1.77958758745795    2.03804698848738
N         7.53634628260518    1.36787298582132    0.63877293767158
H         3.27077191791635   -2.77284186292295    1.69779451323329
H         4.45236770403181   -1.78076946462121    1.00887593956899
H         3.12541737098407   -2.55075985677290    0.04075449625619
H         2.46111888803766   -0.86039003626775    2.38990184237899
H         0.60802259140822   -2.12364000649419    0.97994570961235
H         1.22036656374191   -1.36225661532087   -0.39763120873468
H        -1.18911936123407   -1.00354074738918    2.34200909354845
H        -1.33844721743363    0.68441538866709    2.14237069575447
H         0.14329271601601   -1.74978580203511    4.21567166627312
H         1.57145760232763    3.02451510583846    2.71513154122495
H         0.75052501407545    1.87844659996356    1.53539088071118
H         3.27404020733526    2.52399027089850    1.10423688288540
H         3.89237834302643    0.54113171659634    0.42190272427730
H         2.19049430160441    0.71604571184751   -0.17376893816108
H         2.80098862514288    0.80106542879999    4.17157602913204
H         4.54064132452648    0.82867654062339    4.53393458157911
H         6.36910997343776    0.54383250315741    3.34041371468006
H         6.47231119588722    2.14366440615754    3.89779788316336
H         8.50364937358783    1.23256978909054    2.49065209582897
H         8.03991455275078    2.80960319900075    2.03149680563744
H         6.79653446772719    1.92349267610521    0.20249308617850
H         7.32649097127757    0.37744650821208    0.54164737250645
