39
 energy: -54.527607316163 gnorm: 0.097868765118 xtb: 6.4.1 (79825abcba525fcdf90b791dcacef51065a7a4e7)
C         3.43208365836080   -1.77632837871843    0.34894935673652
C         2.51200023820955   -0.79918221765513    1.08798389726762
C         1.09150521061786   -1.19743823860677    0.65915880852663
O         0.07495615985826   -0.29835776762585    1.09147911540324
C        -0.43851008674323   -0.40737547631722    2.40369222169377
C         0.63328103794289   -0.21772747239637    3.46066054630951
N         0.87790690641859   -1.07966028162284    4.39409681161066
O         1.41559369279678    0.86430445056363    3.49198532619791
C         1.46328687513329    1.91876565214381    2.51201835209587
C         2.81343666544986    1.81869053979811    1.78097277808389
C         2.81671571303459    0.67524257111171    0.73607263571197
C         3.96185840046344    1.55997557333536    2.79335940425230
N         3.83674573417270    1.71040277865046    4.15510368960939
N         5.02919804913925    1.18215133779315    2.17514019508701
C         6.37952115220435    0.86342527301405    2.66249615773485
C         7.25853294275870    1.29024055137222    1.47545634518348
N         7.23777943431529    2.72762704847696    1.19513315498219
H         3.04975009510262   -2.79473189089189    0.47080699543028
H         4.47035446540642   -1.74592679013348    0.69687509536683
H         3.43858813524407   -1.68205866855177   -0.73502838646213
H         2.71166951705248   -1.06561272855644    2.13890942612450
H         0.80602535349194   -2.20382016267058    0.95704273004879
H         1.09738627715360   -1.14118959065498   -0.43674813806348
H        -0.91451783758846   -1.37196030687334    2.61738947384956
H        -1.14837146054681    0.41906803911061    2.44863018171726
H         0.38321765446562   -1.98428007180426    4.41910163277335
H         1.22076015178994    2.87405805370874    2.99959757501816
H         0.73447989543774    1.76848775113240    1.71383556249471
H         3.04984841289782    2.78926092289679    1.30909524485091
H         3.89618870323820    0.65075378683420    0.53319433028717
H         2.17645188250410    1.01903429848669   -0.08955642207702
H         2.98999237554987    1.79170254648299    4.71686494801542
H         4.62007840327975    1.31903534520802    4.66371056834363
H         6.49311068433089   -0.20976313593046    2.85743228757076
H         6.71975092718361    1.34167212064132    3.58908180166686
H         6.88004735204403    0.77981059544278    0.58281058636475
H         8.30345831954609    1.00577510831158    1.63580868066702
H         7.36763818022479    3.29756729076920    2.03458517666320
H         6.36893667744692    3.05750521952064    0.78196262007726
