39
 energy: -54.524008818629 gnorm: 0.105498784413 xtb: 6.4.1 (79825abcba525fcdf90b791dcacef51065a7a4e7)
C         3.88598567735935   -1.17787999213659    0.36197525743237
C         2.71631281061424   -0.46346729123614    1.04682564515449
C         1.38400817147777   -1.09472617580614    0.61464336765711
O         0.33040848004321   -0.23070445917413    1.02938748285215
C        -0.32035865803466   -0.62970382418770    2.21881478212970
C         0.52153496349566   -0.42587849747173    3.46442905052640
N         0.62566133614693   -1.30221500396960    4.41061360682554
O         1.18237799322904    0.71473019654633    3.67910468150273
C         1.48221956235303    1.83701369471997    2.82759248543421
C         2.69873949100410    1.97178244795490    1.89524937851655
C         2.67495726956025    1.03369624239951    0.66288215999210
C         3.99746633136252    1.67241794845255    2.69175553825156
N         3.92888911276973    0.70011783504620    3.66261015391256
N         5.00477090154409    2.40719696879424    2.36070062218880
C         6.34821186143939    2.10019872751045    2.87391899752847
C         7.00138933140281    0.95737984887721    2.07942499113416
N         6.72576672486020    1.11529874806825    0.64967482385521
H         3.68267708173216   -2.25343550608581    0.36643659702875
H         4.82612358888665   -0.89654495981036    0.84877516763544
H         3.92046047427090   -0.96545540171115   -0.70461937926754
H         2.62633247368301   -0.61672698949510    2.13481117699821
H         1.21252393560025   -2.07634779978660    1.05059096175939
H         1.21658816055021   -1.20902431015444   -0.46383565776146
H        -0.66242953919946   -1.66464560644494    2.09816327750769
H        -1.21838358331780   -0.01147980142720    2.20202956817315
H         0.03240452877130   -2.13933596817134    4.30594984719964
H         1.53573496214429    2.56079923625984    3.65367169651150
H         0.61416119907781    2.09377338150116    2.21817643012821
H         2.71238234104739    3.02017056730764    1.54702244110404
H         3.49187831731959    1.24909116667961   -0.03944699878227
H         1.70029343400015    1.26977321797598    0.21111680408682
H         3.02277197653266    0.45433277329273    4.05974749282218
H         4.69476273702366    0.62010024609508    4.32025311833804
H         6.46940887990556    1.78475918194067    3.91720477438316
H         6.96213496971041    2.99502015812303    2.71445006932586
H         6.55176427548238    0.02521660106899    2.43930764064788
H         8.03457587644595    0.80074379053481    2.40575796491260
H         7.41426295597325    0.59553778991793    0.09995093239665
H         6.82301861016201    2.11573750378091    0.49449234242222
