39
 energy: -54.530849555763 gnorm: 0.102173128586 xtb: 6.4.1 (79825abcba525fcdf90b791dcacef51065a7a4e7)
C         2.89184906933752   -1.51855919948431   -0.46696271065424
C         2.20867623484115   -0.72083558688062    0.64858742310504
C         0.71755198432073   -1.08694697036672    0.59552255748428
O        -0.06716940104040   -0.04737214637727    1.17181680455017
C        -0.34451215462639   -0.16873331049713    2.55231966923275
C         0.90969754196731   -0.18801854690040    3.40582465371483
N         1.24208436901235   -1.13865933935645    4.21815115113318
O         1.60304618304648    0.93961754883238    3.58328429892726
C         1.72666630497388    2.01790835059982    2.63644463452037
C         2.79655388280090    1.71091853433765    1.57416174500343
C         2.41405872129495    0.78952239739051    0.38924532515037
C         4.15949829628712    1.44283198610388    2.26787980466226
N         4.42409723087489    0.51407647280692    3.24769083191882
N         5.00711644925141    2.29434258298945    1.79816364111070
C         6.41514254714725    2.46911294699800    2.18467686697746
C         7.13415562514739    1.13530395742284    2.44519615351137
N         7.09708940144760    0.71803585449656    3.84862237769140
H         2.96314565032856   -2.54884597749129   -0.10419569585190
H         3.91506446488313   -1.18115643608711   -0.66488309444995
H         2.24611028253520   -1.54716134420145   -1.34225704694974
H         2.64571358079720   -0.86366957848455    1.65053269404214
H         0.53090438963997   -2.04153559199335    1.08230937200773
H         0.37226022482451   -1.07991703134358   -0.44607943795539
H        -0.92052961794222   -1.04039663666880    2.88560741918190
H        -0.93326570497163    0.69752837032287    2.85545567499847
H         0.69100347267876   -2.01042062487923    4.21348505956777
H         2.13876056610359    2.83660805123728    3.24393571953777
H         0.76208542125734    2.27784463756986    2.19729128695955
H         2.87833683027596    2.70043250012472    1.08966254830176
H         3.19900125258509    0.94244411213570   -0.36408156643977
H         1.48636568123972    1.23891590370525    0.00554625774962
H         3.71114291577005   -0.15402394052547    3.53840480199189
H         5.32014438486402    0.59088101738825    3.71315839930650
H         6.56472066070860    3.17080964068826    3.01406470153529
H         6.80025828649824    2.88464333358268    1.24549760422302
H         8.16915906789839    1.16200847336983    2.08650230742215
H         6.71304073486122    0.36235832566012    1.79425852017907
H         7.54065697220370    1.40265026788258    4.46581423251700
H         7.66301296832534   -0.12104034570052    3.94911557155559
