39
 energy: -54.527120152627 gnorm: 0.096844643670 xtb: 6.4.1 (79825abcba525fcdf90b791dcacef51065a7a4e7)
C         3.38564965238116   -1.15397611315284   -0.40583126796929
C         2.50303244186194   -0.54933283500587    0.69095200618642
C         1.07864572631274   -1.12265275872858    0.63868625675685
O         0.10308766514964   -0.16662050830868    1.04230405900909
C        -0.53747155973606   -0.20834159364085    2.30142237185762
C         0.52919360973510   -0.32040843428145    3.37452585270965
N         0.76969020052643   -1.39351878474265    4.05619206322514
O         1.41726621701305    0.66474436156678    3.53133286218773
C         1.53051066756651    1.88709095964950    2.77797848025685
C         2.69926991572891    1.90671553647283    1.77749668991179
C         2.42502654223946    0.98929449540375    0.55994605625084
C         4.07107115657475    1.59434986606746    2.43424752855433
N         4.16749306108614    1.07102018181298    3.70289165093678
N         5.03127714637636    1.98969809043912    1.66882977687351
C         6.44852324783471    2.17543749470653    2.01435691472225
C         7.23798802575827    0.87066809129500    2.20985292825809
N         7.33004030438951    0.61760599264171    3.64949791743727
H         3.39299279919298   -2.24691958328107   -0.34587626771875
H         4.41326150025530   -0.81050382243756   -0.24451318141415
H         3.10941776691997   -0.76777449494243   -1.38485174478621
H         2.99645985516385   -0.85143752483221    1.62933341156118
H         1.01977568741552   -1.92859830212045    1.36671391164931
H         0.94574440433321   -1.38203197235108   -0.41926941295100
H        -1.16780360635626   -1.09905275327786    2.41091637653847
H        -1.14409136042025    0.69771633008787    2.29970929951353
H        -0.06606226298360   -1.99431737893923    3.99108801396227
H         1.61960328839765    2.63866695584959    3.57568288827486
H         0.56026101336717    2.07172120204813    2.31390294846529
H         2.71028783195631    2.93746286847625    1.37999908487392
H         3.15495670778733    1.39459748894496   -0.15416365660521
H         1.41513705841475    1.21784377655570    0.18889035548540
H         3.37742197812395    0.90370060188697    4.32495954899223
H         5.10792735417518    0.84130188722020    3.99999826892209
H         6.44241114224538    2.73648093863528    2.95660366752410
H         6.79177663117500    2.81979285776398    1.19580905487859
H         8.22031706602277    0.86039771819054    1.72453786887014
H         6.64629367742060    0.05591079507632    1.78023583142089
H         7.94440831480138    1.29067529127040    4.11415320663335
H         7.65385699086241   -0.32913086389702    3.83184186010909
