39
 energy: -54.518833902258 gnorm: 0.110505725968 xtb: 6.4.1 (79825abcba525fcdf90b791dcacef51065a7a4e7)
C         2.97356569369553   -1.30328542958097   -0.19199986575579
C         2.14525869444560   -0.29822875396598    0.61503716907751
C         0.66186902299428   -0.54726868764892    0.30224467820332
O        -0.22767354833517   -0.02093601443541    1.28219694605435
C        -0.25653629368155   -0.65650868390735    2.54419932355890
C         0.90669589938751   -0.47098333176306    3.50041886703285
N         1.42394812908747   -1.40300811309141    4.23380360756160
O         1.58042800047296    0.67862189610577    3.59141490826296
C         1.49588898433988    1.74520926130205    2.62718316153069
C         2.71516014646429    1.97351211118273    1.71690698286205
C         2.57348484699332    1.17169123240889    0.39921516661592
C         4.15540310625649    1.79259632867264    2.26799889001181
N         4.38702312793685    1.48488344804716    3.58871611677441
N         5.05314844314870    1.78400351677994    1.34164066136122
C         6.44784114488325    1.81677019306674    1.80664955498682
C         6.95016483858694    0.54246383962908    2.50501246456788
N         7.40313640794063    0.82619852833146    3.86861179233208
H         2.73267014547829   -2.33863112318006    0.06915637484250
H         4.04664318964701   -1.17665452920120   -0.01185506246931
H         2.89794816355702   -1.14160656113747   -1.26534918915928
H         2.36788287873688   -0.71050758470340    1.61291599692531
H         0.41581117995964   -1.59452152399765    0.14176042781298
H         0.29352685422721   -0.16482519178529   -0.65810502363265
H        -0.48427805851185   -1.69903829619814    2.29133675379290
H        -1.08291588258025   -0.13449170422763    3.02744514505033
H         0.79166118353566   -2.21780137086073    4.23160577932082
H         1.34203226306838    2.64771987711288    3.23623076480293
H         0.58864847809318    1.55496518210653    2.05137011852646
H         2.62572158165700    3.00787827032446    1.33921240343756
H         3.56194446202420    1.27662378706165   -0.06871430268462
H         1.81732041783548    1.62946433553002   -0.25534805641970
H         3.68538946164779    1.72105639262971    4.28950793316542
H         5.27386697055999    1.33996981842122    4.05558603922818
H         6.65456227391855    2.66766688045175    2.46685955965785
H         7.10418736023937    2.11514989191487    0.98008042878473
H         7.67353291897109    0.00877731452438    1.87849522935607
H         6.11692293132642   -0.16500561268725    2.56581873777739
H         8.32759341944047    1.26380147339259    3.88466692235962
H         7.48133460932440    0.01159655932617    4.47253720875813
