39
 energy: -54.523306228480 gnorm: 0.110110373504 xtb: 6.4.1 (79825abcba525fcdf90b791dcacef51065a7a4e7)
C         3.56024161118661   -1.65601266200600    0.46932833594920
C         2.52008768408570   -0.78386079925448    1.17994154141001
C         1.13096674166011   -1.37325494143139    0.89138909422635
O         0.09008819645386   -0.40309594286600    0.95449135095842
C        -0.54323082132763   -0.18255467012788    2.19855897463791
C         0.36963467332735    0.01810786543126    3.39367225437304
N         0.50878738727099   -0.82533012368187    4.36491996966335
O         1.11394850271535    1.11266120675241    3.57182195877882
C         1.42370227752153    2.00317989921411    2.48300270040447
C         2.71760013022363    1.78295195479786    1.68008608277824
C         2.58340942597283    0.65759118376738    0.62421851272254
C         4.02491243084207    1.61868650932165    2.50147761025441
N         3.80949516268538    1.29229170070871    3.82045104212794
N         5.17167441670207    1.82486051819024    1.94777251244932
C         6.25836014056912    1.42168092510907    2.85277805324573
C         7.63092602488765    1.65947264125319    2.20207494627262
N         7.99414811307660    0.93573404807400    0.98167996554614
H         3.19246404698682   -2.66817233328453    0.66540592103254
H         4.51906024029221   -1.43192954422640    0.94936629681826
H         3.60701338709787   -1.41410019917581   -0.59049599004928
H         2.72900761818017   -0.86512791396686    2.25931433860643
H         1.04130238791431   -2.17598311759621    1.61982985675421
H         1.04711432800091   -1.64051655319320   -0.16962482711549
H        -1.22651090784427   -0.99368659564045    2.47760576715891
H        -1.07256443465716    0.76383615711451    2.08418325832097
H        -0.10611374504505   -1.64957158257974    4.28616542256358
H         1.35160253296912    2.98824110249328    2.96631661223673
H         0.60679737210742    2.02742369513995    1.75987240198952
H         2.91426305303415    2.67691134312662    1.06143745705668
H         3.48470473844781    0.87355829199534    0.03426409781072
H         1.73080876737957    0.90448780422722   -0.02532597879902
H         2.82401119342989    1.09304597902865    3.98867451096029
H         4.46383313689484    1.75029298378396    4.44297505837595
H         6.11182895922630    0.35273815326445    3.04905851174040
H         6.25230476040193    1.89765847654700    3.84093088861825
H         8.38096507053709    1.41183813013307    2.96149914646764
H         7.67022392616018    2.74775425413667    2.08981937422869
H         7.20028316256834    1.02370013520680    0.34260619870686
H         8.12091784652291   -0.05184436867035    1.18913005932588
