39
 energy: -54.520160697952 gnorm: 0.114689389737 xtb: 6.4.1 (79825abcba525fcdf90b791dcacef51065a7a4e7)
C         3.52841504582163   -1.83379440062437    0.46328671748132
C         2.55073913549647   -0.87089731805930    1.14484317651773
C         1.11557844890947   -1.31130554034650    0.81825573655843
O         0.11953962851662   -0.31378597248983    1.02192187739671
C        -0.45712316449719   -0.16851643957526    2.30402657929408
C         0.51472733395036    0.17129742182028    3.41844022286188
N         0.62357819644158   -0.35798664606525    4.59406053193539
O         1.13656362836236    1.35244880797879    3.37384824069651
C         1.40064804348759    2.14251871044369    2.19888130140349
C         2.75625993241295    1.66420557089038    1.65035597633566
C         2.74016324235212    0.55259216953136    0.57176575164905
C         3.93266169915891    1.26774259692864    2.58289476798931
N         3.62057073524053    0.74238348338417    3.81546366127364
N         5.10065778453974    1.44520447699520    2.06477073801677
C         6.25399771832206    1.02879892130329    2.87648994039532
C         7.48027242856335    1.80590294116733    2.37027238680792
N         7.86637676150671    1.88044680986756    0.95943632319324
H         3.44369438037973   -2.87477859741698    0.79092716519007
H         4.55286291828297   -1.48052137062139    0.62356014489965
H         3.37350972452669   -1.72897766942160   -0.60860629654803
H         2.79494232734157   -0.83448087404108    2.21924354902247
H         0.79051411566508   -2.27208637212748    1.21102988517213
H         1.09999472411706   -1.40008162085047   -0.27540165609526
H        -1.11277612031913   -0.96778650908371    2.67003251484689
H        -1.16094586515918    0.65071234201081    2.15426248371198
H         0.12339620694001   -1.25256138492841    4.70909825571366
H         1.47186672420642    3.18389658269404    2.54470829128952
H         0.60851199039693    2.01520499338750    1.45918508029551
H         3.25427494041244    2.52427509927414    1.16783418684463
H         3.69318897589599    0.60859547682592    0.02805000031011
H         1.81611018275647    0.77287701879948    0.01733414441256
H         2.68878651007235    0.84738422533915    4.21537568876711
H         4.31645739541164    0.42669439455165    4.47994966128411
H         6.49666645124082   -0.03852926393501    2.80897346371154
H         6.17338634805033    1.37780370798948    3.91318410199409
H         8.35397345972321    1.46956177441968    2.93959449471993
H         7.10933276333194    2.80119625455810    2.63540913016165
H         6.97872131303372    1.95576132456237    0.45667355603225
H         8.30470879343352    0.98477836252170    0.75928563484525
