39
 energy: -54.523896970910 gnorm: 0.115429894831 xtb: 6.4.1 (79825abcba525fcdf90b791dcacef51065a7a4e7)
C         3.52509679469842   -1.35931934668290    0.08314881487799
C         2.52500018932454   -0.58316506484694    0.94624294993335
C         1.10980064182031   -1.08898993038636    0.62740697586762
O         0.05968459807557   -0.31263961659714    1.19587420862703
C        -0.28803831326038   -0.71189139286792    2.50626440555166
C         0.73488399333249   -0.28012373059716    3.54023308600235
N         1.06463833986389   -1.07162289496522    4.50918322476925
O         1.25852651435387    0.94808790831251    3.57312786730717
C         1.30705734430956    1.85712002769108    2.45697211000391
C         2.71573260782713    1.88842591083235    1.83890979676561
C         2.83196961949641    0.90289635484655    0.64957352850774
C         3.90500536780118    1.59141132701802    2.79187634327785
N         3.67769899758145    1.99145122603132    4.08838277866213
N         4.98382900053915    1.24572154627882    2.17478784085334
C         6.24130237489951    1.11184603774413    2.92532944777557
C         7.43833151012490    0.93399966194887    1.97696852425721
N         7.30199523574004    1.72286298082042    0.75051068736334
H         3.34221273899213   -2.43852830464628    0.07719925741993
H         4.52097345381749   -1.25683589451719    0.52779436864844
H         3.47259335904365   -1.03390327496951   -0.95381049267562
H         2.81261125070821   -0.79025362179194    1.99012594829608
H         0.93797358471260   -2.08191951052147    1.03680222385242
H         0.99989740763004   -0.94950196443391   -0.45549418064516
H        -0.47980438253768   -1.79015357084778    2.56327517512078
H        -1.20247633302804   -0.18399098768460    2.77839624635114
H         0.55197196497604   -1.93557687164902    4.27586717179935
H         0.92808717540785    2.84975197638576    2.74016761266429
H         0.64397055928681    1.49825182226820    1.66806886141881
H         2.96053058108070    2.91239628349830    1.50405994101033
H         3.77456831796706    1.08560944495503    0.11558397400055
H         2.02917329140957    1.15226494779889   -0.05974109035023
H         2.72555089689049    1.70922514885596    4.31846771490613
H         4.35905645107945    1.89913116950336    4.83181301446952
H         6.25820009495160    0.16159617968487    3.47248182018236
H         6.41813908952922    1.98245739914273    3.56860384160195
H         7.52262844722064   -0.10053445683826    1.62591337771524
H         8.41140893689071    1.16219799456676    2.42367686710539
H         7.53719579924370    2.71439857672640    0.83946419887060
H         6.34915318190473    1.75058257910558    0.39591108347447
