39
 energy: -54.520097602354 gnorm: 0.105484546912 xtb: 6.4.1 (79825abcba525fcdf90b791dcacef51065a7a4e7)
C         3.16891755521735   -1.90848255297648    0.19777096186029
C         2.39115895089979   -0.82295544739588    0.94894513423743
C         0.90347316765850   -1.19758799911631    0.86680858783262
O         0.05496275224987   -0.07185012760452    1.07018716011781
C        -0.46276981002990    0.01893327553694    2.38211210729424
C         0.62911907924113    0.08320494824236    3.43355514438805
N         1.01801953212161   -0.88921151421337    4.19331558394438
O         1.28325667864312    1.24659721961368    3.48264551221550
C         1.54137613419993    2.00047680131122    2.28283791468571
C         2.86699112393880    1.58853522295761    1.61921441407327
C         2.72091291786134    0.59828131303116    0.43711515427250
C         4.06353503150295    1.41102717786933    2.59261370546604
N         3.84660609824271    0.70705620688211    3.75450688782327
N         5.16357231108279    1.93711419709936    2.17153114392403
C         6.31518688738050    2.13797394058129    3.06367120260417
C         7.56046670983154    1.89268513017964    2.19591080975229
N         7.59672691217525    0.57889906261464    1.54958031258235
H         2.71821521069534   -2.88056765100933    0.42158318566434
H         4.22408708407239   -1.98480943033836    0.48197919399065
H         3.18223958590644   -1.74482546799272   -0.87785709625200
H         2.74743003456781   -0.83944199246437    1.99206383637695
H         0.70208224868446   -1.98625302844939    1.58825666889964
H         0.64610899173412   -1.67223634799102   -0.08853593581188
H        -1.10536070667926   -0.85218283764420    2.55791727316883
H        -1.08893223316456    0.90972859948347    2.43986844065014
H         0.32631951700622   -1.65340568821073    4.15813003803606
H         1.65937170335142    3.04599624206130    2.60237264385487
H         0.76039224137063    1.83000342657556    1.53997735487748
H         3.09852769416453    2.58650390949416    1.20567464468638
H         3.53122458454808    0.53267947236774   -0.30187917816458
H         1.93457865450839    1.05389215247865   -0.18247427291164
H         2.96986679943509    0.24632431190755    3.99581779184993
H         4.57030865498266    0.97656817337436    4.40954689914013
H         6.36256047460192    1.34659738359838    3.82137492791535
H         6.31855975261154    3.11417598859552    3.56372670070484
H         8.46453795216173    1.99148044866703    2.80705826288568
H         7.59767405506211    2.63156587128933    1.38895766979921
H         6.77747027057056    0.53667199884288    0.93850723839527
H         7.35090802849505   -0.20914701373495    2.14369620506715
