39
 energy: -54.518108365448 gnorm: 0.123255282652 xtb: 6.4.1 (79825abcba525fcdf90b791dcacef51065a7a4e7)
C         3.39943420516943   -1.91085149815184    0.97390150591954
C         2.38546123030573   -0.77663754970757    1.15544406062730
C         1.03963989588388   -0.94505872756233    0.43384570562645
O         0.00889917834680   -0.06878354034899    0.87919262892474
C        -0.54115580453546   -0.21575400834935    2.17274389254826
C         0.39318498577748   -0.10954898803794    3.36337917968153
N         0.30193377000441   -0.91302830639646    4.37341256334296
O         1.22677071443992    0.92334050181077    3.51191043489504
C         1.57056143172480    1.75471997042132    2.38713738275805
C         2.96570888155727    1.68645713762706    1.74196233495517
C         3.01475660778993    0.55506589347653    0.68515181607875
C         4.11101359886747    1.51076357086592    2.77547161951470
N         3.99369622884860    0.82129706161385    3.96016633979753
N         5.19463065481413    1.99846624294937    2.27339568410868
C         6.51505140143626    2.01111756542205    2.92054607281199
C         7.58982250417056    1.86225950476085    1.83123212360519
N         7.40314063252025    0.79930396373176    0.84109721538692
H         2.90460446249332   -2.88722104526971    0.97837174817104
H         4.09092464462361   -1.93438614438237    1.82317763243983
H         4.01795753138024   -1.72208434006060    0.09883997001731
H         2.19652958779289   -0.71387316313354    2.23972399632138
H         0.63784054294334   -1.94969171597263    0.54478711956671
H         1.16243775913863   -0.80571522382578   -0.64768774447989
H        -1.08918176787504   -1.16368230706222    2.23417085372828
H        -1.34289533533653    0.52318517044984    2.18342496684259
H        -0.43550917436004   -1.61806247559503    4.22246758046325
H         1.54778289881418    2.72682422486894    2.90058723029167
H         0.83652614314384    1.75598448724453    1.57965401028679
H         3.14466126585883    2.67456247964068    1.28132184317823
H         4.05316154031055    0.47195848727351    0.33611087383694
H         2.39172889457928    0.90863329046664   -0.14948608703797
H         3.04939761321115    0.75064886130128    4.33763896910695
H         4.48008395577193    1.19662666066209    4.76515960742575
H         6.71408630344395    1.15248667337236    3.57305977805296
H         6.46149078907851    3.00363397680835    3.38431298709290
H         8.55487087696508    1.81407477395949    2.34792003977165
H         7.44458858408631    2.82939036105876    1.33922854581774
H         6.73297276319406    1.07292194213688    0.11833646714119
H         6.92851855946071    0.01025474436478    1.27301439755055
