39
 energy: -54.529857847484 gnorm: 0.097959627141 xtb: 6.4.1 (79825abcba525fcdf90b791dcacef51065a7a4e7)
C         3.83977891668125   -1.20770836819127    0.30614785961813
C         2.67784977788339   -0.41156338131564    0.90915201719955
C         1.31632714162796   -0.87831732689725    0.37184221065455
O         0.22920258626310   -0.26323987095607    1.05628245494608
C        -0.17513536263315   -0.84075323349885    2.28120074790435
C         0.59388074917479   -0.54806504087704    3.55588991209117
N         0.56259321335335   -1.46973095892470    4.46342849137240
O         1.25777584022942    0.59478171758457    3.74806692295078
C         1.29603403819318    1.72377139931137    2.85452513509154
C         2.57110257540112    1.93213043548411    2.01898109469605
C         2.69218124977677    1.12098869866216    0.70494556899840
C         3.87783118530018    1.83327106103670    2.85169940705900
N         3.88004433965526    2.07501547510487    4.20601983004763
N         4.94018965976117    1.62462031529063    2.15025842861293
C         6.24523861178978    1.48846756562429    2.81417432831156
C         7.10824010601567    0.66474931898929    1.84432217010879
N         7.28414894784374    1.27451941818399    0.52434934812274
H         3.71656837977489   -2.29478139891724    0.34171947101494
H         4.78097571340263   -0.99754201693230    0.82572609445085
H         4.04333115006314   -0.83469589566086   -0.69553323763587
H         2.64899219370837   -0.58931950211720    1.99674914904577
H         1.25091363092108   -1.95871513108265    0.47907943948029
H         1.27402375612963   -0.69878297251487   -0.70991024518359
H        -0.12686226410160   -1.92020466505807    2.09377580778246
H        -1.21054690999681   -0.50568935399956    2.34892519611255
H        -0.09175382599586   -2.18988689791546    4.12154394442257
H         1.15135269718075    2.66813370073552    3.39893623448390
H         0.45457936384644    1.65926402152697    2.16269304170810
H         2.47901656139539    3.00287215385098    1.76285973962536
H         3.55116612616490    1.37390101224251    0.06839111347833
H         1.85760608475030    1.40362937939675    0.04662011010172
H         3.08027872253732    1.72436480146249    4.73194349651239
H         4.74956421138050    2.09620302400422    4.72461965620170
H         6.15048784922554    0.96955538502476    3.77562557002873
H         6.77190591420440    2.41599742615328    3.06980536844408
H         6.71664906812211   -0.35492177017462    1.75752433116644
H         8.10333397731052    0.46538906849969    2.25486593608242
H         7.76059338317600    2.17814919412002    0.57753580643774
H         6.35959713043490    1.41799586421652    0.12555656680442
