39
 energy: -54.517081875106 gnorm: 0.122855600502 xtb: 6.4.1 (79825abcba525fcdf90b791dcacef51065a7a4e7)
C         3.41178835571120   -1.64529472699263    0.29182166014743
C         2.39013080778385   -0.74383864218704    0.99263044583527
C         0.97823573242392   -1.16323262198041    0.55563395207181
O         0.08609344047840   -0.14793577499356    1.00493670509444
C        -0.36675994403712   -0.33024337720458    2.33125620905848
C         0.58057002144579   -0.34242697340011    3.51628874020142
N         0.83331348519966   -1.33391735347682    4.30821095841396
O         1.18211109912922    0.81999847330258    3.78218874111664
C         1.53556592958560    1.81622536501190    2.80387388412984
C         2.74817086962010    1.74647240688474    1.85937886677697
C         2.58687366125985    0.75722246423061    0.67841822146263
C         4.09577017179177    1.49748810495283    2.58925249170366
N         4.24111108991212    0.50349805528295    3.52919335208253
N         4.94521746694257    2.41156117191322    2.26203729280097
C         6.31925852278371    2.54540396353580    2.76856657450227
C         7.26936710955938    1.40351709914225    2.37197537482553
N         7.61806921092860    1.43351951776122    0.94979450085007
H         3.17626258055611   -2.68788733016472    0.52783484627051
H         4.44352850377513   -1.37108053079655    0.53738567625626
H         3.33856383865618   -1.64969816081199   -0.79379135320509
H         2.53221530502552   -0.81568359009670    2.08347773658702
H         0.72847407998701   -2.13900826940948    0.96614481063929
H         0.88392584123190   -1.30096802906946   -0.52896050348575
H        -0.92987502593640   -1.26891213276408    2.26435210943494
H        -1.05034285031776    0.51043781014206    2.45332595458772
H         0.30441026682113   -2.12362323631950    3.90782905234232
H         1.57259432876232    2.70441062606469    3.45109263878753
H         0.62567652050001    1.75091413458839    2.20497946974329
H         2.73614068530271    2.75921291628740    1.41804257048457
H         3.54539643077545    0.85563662377927    0.15062092457020
H         1.76072100724960    1.06241304144775    0.01953707932942
H         3.38604013552928    0.08706361009169    3.89608930900323
H         5.05820035858174    0.57561104052138    4.12301515886816
H         6.28069843100032    2.45996792426503    3.86120093469916
H         6.52146316537028    3.57103872258228    2.43656666597288
H         6.80310518376082    0.43609877003566    2.58947968272518
H         8.13184996408857    1.56133720188639    3.02750465980409
H         6.88560792275686    1.92692943701320    0.43363368937770
H         7.69737975481333    0.48491402512645    0.59163993677096
