39
 energy: -54.530764029712 gnorm: 0.106549593345 xtb: 6.4.1 (79825abcba525fcdf90b791dcacef51065a7a4e7)
C         3.25238725699635   -1.74149060791503    0.19630126783281
C         2.47705592186640   -0.66837379670199    0.96754817115081
C         1.01327510433682   -1.10518732044372    0.80370501635421
O        -0.05017719714057   -0.17981534563531    1.00711203055085
C        -0.54887975647920   -0.10403578751976    2.32733508000331
C         0.57999651813669   -0.25389654288330    3.32986424576209
N         0.64764572259127   -1.13883331767971    4.27134378994856
O         1.61472266852276    0.59056498857380    3.32613203630696
C         1.56935681989981    1.82506396047250    2.58555620518091
C         2.83527681366957    1.83213163370760    1.71105994681725
C         2.80081890227519    0.78928273050227    0.56625467982888
C         4.19187804173121    1.72944099911757    2.45927135487793
N         4.20774448215702    0.95405559735084    3.59556126225896
N         5.12691594695814    2.48277492543173    1.98772902520432
C         6.48151184243302    2.56463092465069    2.55416011556494
C         7.37042242138217    1.46068446153245    1.95831055056292
N         6.98258601816361    0.09892337802265    2.33285215313751
H         2.90728922652050   -2.76383979104561    0.38037582394845
H         4.31176986544774   -1.71921752985765    0.47414158190982
H         3.18416548798841   -1.53099919424082   -0.86905125048799
H         2.66865542838491   -0.86169368982405    2.03582460896081
H         0.73947119991831   -1.98658290138114    1.37921470501548
H         0.92493216025675   -1.36340705775657   -0.25918191107950
H        -1.30834588383314   -0.88526695564513    2.45208623067344
H        -1.01672616909575    0.88064222189995    2.34879254784176
H        -0.04602194075094   -1.89833998266007    4.19614763711071
H         1.55859959564284    2.69082293889850    3.26340718725651
H         0.72337407446600    1.98908225823482    1.91604144979738
H         2.88393940676635    2.86762209632031    1.32901643089671
H         3.76862430608107    0.78334401538249    0.04631367222058
H         2.13376507168713    1.22981994598517   -0.18923191840490
H         3.35333653110461    0.62896030796075    4.04664520926243
H         5.02605236670765    0.98209152604085    4.19141835655689
H         6.49639305325323    2.51634041114468    3.64964293687055
H         6.88758980142288    3.54790868649678    2.28713419153907
H         8.42264518705106    1.64615183635294    2.20128304669551
H         7.35221358055661    1.57963976149238    0.87018345489644
H         5.97941805033389   -0.09616712324177    2.28848331112936
H         7.22791219631943   -0.00243074146691    3.31466661821270
