39
 energy: -54.520717589885 gnorm: 0.126408118494 xtb: 6.4.1 (79825abcba525fcdf90b791dcacef51065a7a4e7)
C         3.84017233271432   -1.15543982697982    0.21457598826117
C         2.71640483206061   -0.43653648192830    0.96814401123128
C         1.40150677048203   -1.07592505380713    0.49641283640594
O         0.32900735243040   -0.32646925150008    1.05915569490790
C        -0.11084461580696   -0.75040314359243    2.33361479192739
C         0.91152850071691   -0.38197792474049    3.39234076519558
N         1.34075563577874   -1.21612011366555    4.28343229964024
O         1.41867331705789    0.83197180066627    3.62237905407815
C         1.25355258906981    1.93645631526019    2.71279264088959
C         2.56165546198551    1.98146365293124    1.90397354719257
C         2.63444972271694    1.07441946179134    0.65046960241989
C         3.77354847157869    1.76257523067630    2.84956109621005
N         3.60758842109837    2.34613763716665    4.08428423622602
N         4.82128087943712    1.29611510787471    2.25894121793041
C         6.07873133492509    1.09802825775580    2.99518479076627
C         7.03089950402072    0.51586313240979    1.93766123188238
N         6.99527488120770    1.28402949833317    0.69116892791539
H         3.79552282880045   -2.19297175654465    0.56056423905200
H         4.80779586623974   -0.75787015952101    0.53957738026918
H         3.80409186364808   -1.06941181501858   -0.86950621190903
H         2.86908760645663   -0.60512534521783    2.04682991458536
H         1.43635804589409   -2.06051746058520    0.95728304352738
H         1.30509965909789   -1.00337849924400   -0.59429940854341
H        -0.33527829632064   -1.82310036537198    2.37391343914075
H        -1.03723019837570   -0.17881707984244    2.39710177598346
H         1.09123725991957   -2.19229602952288    4.06320326836224
H         1.16413846343065    2.83651981558695    3.33811423590326
H         0.41280421780548    1.85013092022761    2.02248189969185
H         2.78834468194802    2.98713484224624    1.50672895647037
H         3.34888214424489    1.35291793436670   -0.13632524564995
H         1.64266345043757    1.14938201891233    0.18085861755552
H         2.65746885844745    2.44415056706132    4.44043436801990
H         4.28727016499930    2.23534882618291    4.82672484613660
H         5.86449558257051    0.39464903305887    3.80881661960346
H         6.43358115805707    2.04738252797241    3.41452401943293
H         6.70548622761901   -0.52654847581219    1.84771250257857
H         8.04698757542022    0.47906733626959    2.34351047172207
H         6.63257823568556    2.23181863371358    0.81970596190591
H         6.21976311330244    0.94237606273832    0.12878857302786
