39
 energy: -54.521813700914 gnorm: 0.127174163393 xtb: 6.4.1 (79825abcba525fcdf90b791dcacef51065a7a4e7)
C         3.49013984050014   -1.41041551786402   -0.06664491627856
C         2.55642062472910   -0.65741473511412    0.88661181959382
C         1.08561594690327   -1.05826348875575    0.69593203194321
O         0.00346041694285   -0.27288096147965    1.18657669589159
C        -0.47311662983613   -0.54999173938178    2.48792968641264
C         0.60050430899176   -0.29960889669465    3.53029771774072
N         0.76324674194630   -1.07125452739007    4.55604191169438
O         1.24966427768013    0.86508231706147    3.60693386272267
C         1.43465240264901    1.85390327424002    2.57615221311860
C         2.79241269738251    1.86907662107671    1.85254747256177
C         2.83851291346142    0.84966537068429    0.68722529961479
C         4.06334269228512    1.56441882803382    2.69079157382896
N         4.07873904629616    0.49369482846072    3.55447097767740
N         4.97659266211068    2.43824354589828    2.43278974830797
C         6.34204767392065    2.23927500026991    2.94113881521073
C         7.13053362184588    1.08937721872117    2.29312529435412
N         7.39458558905122    1.26183663169681    0.86287145368487
H         3.04463964031764   -2.38653578673851   -0.28319223299633
H         4.51360915226799   -1.38139826430483    0.32277954210194
H         3.47328271896325   -0.91296631044329   -1.03421763061095
H         2.73928000048498   -1.00242740212695    1.91754644685513
H         0.96113682374298   -2.10724974658406    0.95510557808661
H         0.87824019576244   -1.07968632106955   -0.38144760660025
H        -0.58172326560519   -1.63471591471469    2.60731080322003
H        -1.40029068369390   -0.05128886757229    2.77178737064410
H         0.17273910096870   -1.91360998797552    4.48243711987254
H         1.47188119843602    2.73988643885846    3.22637074410736
H         0.71287440046848    1.78954460775104    1.76022740966591
H         2.90983356170379    2.89488028859926    1.45947627642737
H         3.80568692791877    1.00568820111951    0.18998036482963
H         2.12473538952549    1.17833151362385   -0.08238114131081
H         3.17663608536616    0.12333908909630    3.85149540006110
H         4.86654175305593    0.50091507944915    4.19068970016949
H         6.27854166228303    2.09733101449020    4.02670545769416
H         6.80954823814869    3.20078363650879    2.69622723167826
H         6.58450022968616    0.13951679545126    2.27831846125912
H         8.06150392427858    0.93430787358610    2.84787775797716
H         7.88595491297265    2.15671292194562    0.79862595966403
H         6.55270608305155    1.19346267046597    0.29631948506395
