39
 energy: -54.534480366948 gnorm: 0.113141565305 xtb: 6.4.1 (79825abcba525fcdf90b791dcacef51065a7a4e7)
C         2.84593094370377   -0.70467469640960   -0.95933065954349
C         2.32189554629262   -0.13288647447589    0.36202671250435
C         0.88122204038402   -0.65629184086438    0.46600565161948
O         0.12840530945551   -0.28706048878246    1.61733258029771
C         0.52999993319208   -0.96631028971088    2.78984149382316
C         1.84593786069112   -0.54813744742731    3.41858903327512
N         2.69910434472690   -1.41157094256336    3.86654304905555
O         2.27091848688590    0.71262139430890    3.53549083210091
C         1.66186521392109    1.77463378824872    2.77675363835433
C         2.63093092698412    2.12395559488592    1.63384811955110
C         2.27522330905850    1.41152850153770    0.30523229092880
C         4.10608755793165    2.12983918486366    2.11821459301294
N         4.26401408808156    3.17252600145098    3.00166942547045
N         4.85973430481283    1.15675423118360    1.73184390768833
C         6.26931019827313    1.05292686031834    2.13778763632166
C         6.31682692794328   -0.18007439953737    3.05503710294023
N         5.60359220558512    0.18721473776654    4.28038875264275
H         2.92065532351026   -1.79341546754576   -1.04438210924154
H         3.83318976221364   -0.35332904852158   -1.27848439186863
H         2.14919432993750   -0.40452547180052   -1.73933410235715
H         2.92142425360361   -0.48145068766521    1.21897818465677
H         0.82207055677418   -1.74228145239552    0.45312830616360
H         0.26151842659372   -0.25078649874319   -0.34377418447400
H         0.55583993807982   -2.02092578763082    2.49018796700040
H        -0.30579604589012   -0.78631729258293    3.46658300811168
H         2.38811976603061   -2.39214955177679    3.79282841114513
H         1.59072374763750    2.59002844013078    3.51106061938732
H         0.66294890323309    1.52180877750395    2.41747028042406
H         2.40945913938927    3.17807556055964    1.38819155236247
H         3.05824679481939    1.70871641605340   -0.40580553885333
H         1.26600684632644    1.74763074384407    0.02539077054654
H         3.51370980694201    3.83384236040730    3.19885153373782
H         5.05387552124273    3.29534991606724    3.62335478244230
H         6.55904078881890    1.93537293052039    2.72086667067536
H         6.82429295267614    0.87110927575198    1.20936218235153
H         7.35099057393836   -0.44243952920198    3.30458995517147
H         5.95489601595815   -1.08866376536164    2.56312869400216
H         5.83932960606562   -0.44119930426691    5.05233340156215
H         4.60863341721062    0.28556241529286    4.09383586573273
