39
 energy: -54.522090676957 gnorm: 0.090774039323 xtb: 6.4.1 (79825abcba525fcdf90b791dcacef51065a7a4e7)
C         3.88498143684027   -1.42626799511990    0.29211254045651
C         2.79448692258056   -0.61467033975586    0.99898673114137
C         1.40351330250755   -1.11621242247936    0.58191017119584
O         0.29387227122177   -0.29922695337989    0.94225726678364
C        -0.25813449752843   -0.54274687370454    2.22031134890878
C         0.49630654205029   -0.30180642737642    3.51439442245949
N         0.58058391347144   -1.23076806802586    4.41105534797509
O         1.06282507335951    0.88028131776706    3.77034890270446
C         1.33002019139843    1.89392291014572    2.78260613414471
C         2.65890025918740    1.84162974586851    2.00885538597588
C         2.89905685101710    0.91398327132345    0.79185205868114
C         3.95829255311297    1.70235245560148    2.84725509462895
N         3.88898308451233    0.85334734289611    3.92754003327088
N         4.96265178517468    2.37052650424587    2.39012706660482
C         6.36174416260297    2.12997819119322    2.77373057980311
C         6.87815765696117    0.93685905500226    1.95295024761574
N         7.03499316178543    1.29254546523246    0.54086613407370
H         3.92324083271695   -2.36521219724391    0.85344484352023
H         4.77652797100536   -0.79828163752014    0.18837847654109
H         3.67180788905014   -1.70468402923312   -0.73792550894497
H         3.00873395077451   -0.69813854636539    2.07714663591876
H         1.27818745347760   -2.12566243656785    0.96706242172856
H         1.36799478476127   -1.15920507940649   -0.51403717987083
H        -0.62895449423143   -1.57476936114479    2.23010407830870
H        -1.12681640226602    0.11279436505052    2.28805277128604
H         0.05460285238821   -2.06159002993309    4.09999513989819
H         1.33496983629503    2.85825098832480    3.31098396402689
H         0.45440560349884    1.84221547972320    2.13340337072410
H         2.65708771083662    2.86650407382979    1.59630826328027
H         3.98606335102352    1.02832941200595    0.68066272583152
H         2.29730776805821    1.22188094904226   -0.07584080686802
H         3.04791580387923    0.62623247760495    4.45688046209515
H         4.73891279598758    0.79538961391262    4.47500681962881
H         6.59375809671616    1.89238037333888    3.81888743215235
H         6.98599751984872    3.00436895498674    2.55285539409501
H         6.18491722486023    0.11959294536048    2.18120524190780
H         7.88523235491549    0.65169816991642    2.27386507405161
H         6.40527037460442    2.07866024902203    0.36240709339641
H         6.70225796960586    0.56661907102209   -0.08900321518134
