39
 energy: -54.522022391509 gnorm: 0.109620939375 xtb: 6.4.1 (79825abcba525fcdf90b791dcacef51065a7a4e7)
C         3.31246743040205   -1.67874421839349    0.08841657069819
C         2.36630879925053   -0.87462015165706    0.98602923559437
C         0.90295135889698   -1.31920939665632    0.84032288165224
O        -0.04241600269282   -0.31146079793602    1.18578174973884
C        -0.43100796320860   -0.30859262921541    2.54461350883337
C         0.72078313012224   -0.17318866241084    3.52284031058450
N         1.23331852510422   -1.20331686453439    4.11463133047414
O         1.39351777552886    0.96526783224257    3.71027651528549
C         1.44180769394060    1.92326250947683    2.63584056088272
C         2.67946048003349    1.72178873187198    1.74422910011943
C         2.54003085815138    0.62633187970902    0.65802747483754
C         4.04175868687610    1.59130616228896    2.47761202174876
N         4.04610875750532    0.52360539598021    3.34515176443010
N         4.93660213781891    2.44704731381548    2.11550379768223
C         6.22971294803117    2.49405472903474    2.81416636414412
C         7.19142270104396    1.35022969748430    2.45267615947615
N         7.92382087180606    1.40017440489673    1.18532057300978
H         3.37303486127497   -2.65477988138345    0.58020913167607
H         4.35982718342032   -1.36303971398107    0.14630487917572
H         2.94828529858041   -1.64857821506881   -0.93647279979197
H         2.65862340183264   -1.10710184097003    2.02323796298728
H         0.78121167825146   -2.18364930409719    1.48913815333419
H         0.66626253544915   -1.42195669301041   -0.22627541475768
H        -1.07516859607737   -1.14253366954485    2.84837856781700
H        -1.17931068678728    0.48285099145870    2.59552033958777
H         0.73788059845820   -2.10228864822063    4.01427866410020
H         1.48778693972995    2.83261465354110    3.25236377696895
H         0.57870892530461    1.98772929279486    1.97120279114390
H         2.82014433349489    2.61151462086544    1.10457161091404
H         3.45930965002528    0.72527079457507    0.06459775578513
H         1.71266323302754    0.99160160832463    0.03206045892157
H         3.17173690700026    0.07925898893309    3.62301282924011
H         4.74684248013137    0.50521464916900    4.07596879157739
H         6.02731712454752    2.53403863150194    3.89123333608678
H         6.73115888098908    3.44644320164181    2.60310834200558
H         6.57969544151055    0.44321570818666    2.39166865395570
H         7.88532686404000    1.03426729003412    3.23827610190394
H         8.31341070400685    2.30108209710464    0.89729286281436
H         7.21869426628839    1.14227246157149    0.49924456176745
