39
 energy: -54.516989819283 gnorm: 0.116670219235 xtb: 6.4.1 (79825abcba525fcdf90b791dcacef51065a7a4e7)
C         3.59867864158526   -1.43455924878495   -0.02912922465577
C         2.62138869560671   -0.57946171966514    0.78404527330364
C         1.18800615044259   -1.04533743833891    0.48625466659104
O         0.14275198118862   -0.51581704776498    1.29598943299814
C         0.20945952914582   -0.86506217355243    2.66383942894962
C         0.61204852474703    0.20209323336123    3.66433232069157
N         0.77419457816290   -0.19492102382988    4.88505405957802
O         0.91724485655544    1.47412872907703    3.39494731910971
C         1.27596200989649    1.99860000358341    2.10237229372723
C         2.73602496566363    1.87628144027960    1.63269001698580
C         2.81693680234903    0.91135364821460    0.42369540417605
C         3.87578811984596    1.68306804281468    2.66919431860230
N         3.52608473477705    2.33966080391603    3.82644215957897
N         4.96206921052712    1.13851053938488    2.23605390687747
C         6.09738850051981    0.88153550936547    3.13465760191678
C         7.37473932789600    1.13881066945030    2.31851981189722
N         7.45139214369768    0.43799756813949    1.03474526457529
H         3.48010466600580   -2.52075116596322    0.03645494603467
H         4.60779087497998   -1.26748429179009    0.36299487416355
H         3.54899812019859   -1.12094252751793   -1.06985648835961
H         2.91398488597302   -0.69534154169487    1.84057584772664
H         1.22413880823915   -2.11481088775073    0.68108571169959
H         0.88768764021752   -0.86098389531150   -0.55299174107455
H         0.78709805976391   -1.77529941153059    2.86502511097740
H        -0.79247730088012   -1.16217899946787    2.97492727927808
H         0.37864635566456   -1.14246711640609    4.98189242333913
H         1.12144202691211    3.04180002964047    2.41381021257202
H         0.67083945464723    1.61821335039120    1.27776844993148
H         2.85796471510073    2.83589409340059    1.09898591440407
H         3.88297357484446    0.96729268848578    0.16396925572860
H         2.05918411211527    1.20649217663920   -0.31691109261876
H         2.52230042549091    2.39163099591990    3.99642099535861
H         4.06111541017529    2.06067910442093    4.63968928994839
H         6.18772284665319   -0.20422383404195    3.25956719233100
H         6.02917258446065    1.37110582517264    4.11379232737059
H         8.13859487499711    0.72386978456206    2.98556951173004
H         7.43009958069496    2.21918670317057    2.15051572091292
H         6.90516839358975    0.99324630502083    0.37163642981846
H         7.02308012966648   -0.47100235870559    1.19186047006382
