39
 energy: -54.522097494083 gnorm: 0.105751947556 xtb: 6.4.1 (79825abcba525fcdf90b791dcacef51065a7a4e7)
C         3.06359211768089   -2.24904839736243    0.52731548687907
C         2.33890523569056   -1.08862197116025    1.21708325934949
C         0.92800858869824   -1.05968279916019    0.60976283691732
O         0.20399699341606    0.14753925405005    0.82665134940562
C        -0.66655850666089    0.18094208582625    1.93950939930696
C         0.02670743613146   -0.07596236838398    3.26437430272119
N        -0.34413290325788   -0.85587511868193    4.22785069329981
O         1.20679803357828    0.52707901888235    3.43024968011328
C         1.73113697614578    1.69078496774656    2.76290012989863
C         3.02071760132126    1.44585946961443    1.96019199138320
C         3.01719847544986    0.27429730056821    0.94691515351312
C         4.29055355856224    1.35591514168807    2.84910100189179
N         4.20490299350465    0.70583125277712    4.05851571128758
N         5.24430635969096    2.07837008754312    2.36684120911304
C         6.61640584096802    2.15440694320988    2.89032572687338
C         7.51195286527347    2.52834669259784    1.69782368604013
N         7.80991750534202    1.40677658424166    0.80429735365938
H         2.38659536903720   -3.10897411706873    0.54673469402839
H         3.91855568526807   -2.51975679531769    1.15639187498004
H         3.39616275339020   -2.18948173749298   -0.50698882527370
H         2.25610375056255   -1.42057878057808    2.26505562372652
H         0.33919050141371   -1.91901368583494    0.92262357078069
H         1.03287218741580   -1.04213058507279   -0.48243955875877
H        -1.46867435211596   -0.54994274336170    1.78110701845454
H        -1.01713148779620    1.20999119259021    2.02369958582319
H        -1.21811815258625   -1.38954751543150    4.10528148750940
H         1.96404693374458    2.35674317810280    3.60633885872058
H         1.04556653042095    2.09628032082172    2.01697420525461
H         3.27724430901916    2.39130346700407    1.44941270350129
H         4.06646916282089    0.04246540239288    0.71820963923278
H         2.50375844636755    0.74970745277985    0.09829369525547
H         3.63175226779145   -0.13663472785657    4.08894507804947
H         5.10612855300213    0.57416663564774    4.50114017574668
H         6.89128450487809    1.24191213372918    3.43294067392129
H         6.61547490602653    2.90925903615639    3.68608622095321
H         8.35910288499738    3.02818330977801    2.18063496806605
H         6.98517007242293    3.33745339501363    1.18173383174005
H         6.94245487239662    0.97728962133047    0.47350376259444
H         8.38857604332411    0.77132506896641    1.34814742840187
