39
 energy: -54.526266707093 gnorm: 0.113657346487 xtb: 6.4.1 (79825abcba525fcdf90b791dcacef51065a7a4e7)
C         3.54001861362841   -1.45309823944749    0.07992881863613
C         2.61229113339702   -0.66560692718618    1.01090644479634
C         1.14924661253293   -0.95972703759002    0.64580503357845
O         0.05985027790624   -0.13235551145576    1.04240369947398
C        -0.44652470984100   -0.52554901706329    2.30193493189342
C         0.47704201696552   -0.35957366401257    3.49414351737000
N         0.53630491238744   -1.24838453869719    4.43253383393543
O         1.39426954200785    0.60858367507180    3.56592410102363
C         1.41963522284518    1.74917675231861    2.68677544851241
C         2.75542635439456    1.82087889801387    1.92659917231942
C         2.80398970259883    0.84213301585118    0.72701657045601
C         3.98382301302923    1.64402148797524    2.85960276773211
N         3.86109928642733    1.37832894208146    4.20384061973202
N         5.11386516739153    1.57829168403463    2.24085854681422
C         6.41743324324557    1.39653474367489    2.89671625522431
C         7.39246674970735    1.06001658143002    1.75655761592429
N         7.41385643751582    2.11774403371454    0.74371662972942
H         3.22875562077548   -2.49719234580856   -0.02569693298694
H         4.58241127724638   -1.45574035563665    0.41666818675097
H         3.49187113744450   -0.96750594910719   -0.89260333384628
H         2.90993062489292   -0.98635398835500    2.02275108035188
H         0.88276035778701   -1.97976609363654    0.91328131872766
H         1.00737945723500   -0.99408140286611   -0.44180887859458
H        -0.82336227764963   -1.55542513690946    2.30666962018249
H        -1.25069791821230    0.14207901580092    2.61259510243350
H        -0.03130100227221   -2.10949032104398    4.43266848280386
H         1.23037248956177    2.64045188077360    3.30236017110546
H         0.67291755713355    1.72683097698847    1.89131821115012
H         2.80832186501707    2.84194780187842    1.50804671281756
H         3.75242967223397    0.81855948028921    0.17300651351544
H         1.99759540179285    1.18244024714714    0.06089864307216
H         2.92758182110291    1.25655114705993    4.59485460852537
H         4.66100289726821    1.29785502326817    4.81958216655671
H         6.35496268107426    0.57854842686597    3.62447436099562
H         6.67243769039342    2.34811715045755    3.37889980178997
H         7.12616195098493    0.08502350400059    1.33338296137512
H         8.41962911337933    0.99592146670731    2.12982936744376
H         7.24921118659924    3.02690063166463    1.18269395624370
H         6.64415248384975    1.91470942495396    0.11066844241096
