39
 energy: -54.526827318170 gnorm: 0.107706024881 xtb: 6.4.1 (79825abcba525fcdf90b791dcacef51065a7a4e7)
C         3.42356472214803   -1.76687082196067    0.25302562115135
C         2.48107552998527   -0.76118740511488    0.92224543009418
C         1.06239695944287   -1.23671849801821    0.57363930993257
O         0.05081302746657   -0.39345341282913    1.11606022871782
C        -0.30763284396815   -0.64482612692697    2.45984740588707
C         0.58919176086868   -0.22266904016209    3.60848729771011
N         0.73442252135467   -0.90161945967435    4.70027829127630
O         1.08520380931825    1.01702094714552    3.63895308343539
C         1.36206067183346    1.76927815913046    2.44230875491160
C         2.71748142384117    1.66776631497056    1.72128380291459
C         2.76376727603915    0.70221771562261    0.51096408659500
C         3.97389891361353    1.48847398805675    2.61571207309224
N         3.81035704368341    1.73205761329981    3.95979172614275
N         5.09074250182384    1.36417982842929    1.98217325132316
C         6.31564134017887    0.99819497961476    2.70891431463568
C         7.54403388071553    1.32899830065599    1.84548078568298
N         7.72077341581654    2.70076274802103    1.36369537740693
H         3.34058406552924   -2.83305709378693    0.48655289949404
H         4.48777847510213   -1.60005411390510    0.45203345110835
H         3.27763217498582   -1.65964349258201   -0.81988762222612
H         2.54952843095228   -0.81765143245325    2.02107367994755
H         0.88046546087193   -2.28260544974388    0.81040832779102
H         0.79570122846814   -1.24114941055804   -0.49081561193284
H        -0.38518162924894   -1.72608806681893    2.62577686663424
H        -1.26213021477220   -0.14257499012632    2.61987874235776
H         0.19763686446655   -1.78133625985557    4.74076493809998
H         1.44636632458629    2.77171069566501    2.88633337338470
H         0.53458795696919    1.69823591097967    1.73443821605066
H         2.80579355596420    2.65484197327571    1.23297201481933
H         3.73459857078402    0.92729532234505    0.04852717858354
H         1.97438683391542    1.07421907094560   -0.15857857462810
H         2.86293758666042    1.59449644299732    4.31000584909745
H         4.45309920757942    1.34505996125245    4.63992025883022
H         6.34829553620833   -0.08388647132383    2.88404136341491
H         6.38259329804941    1.66339346154472    3.57843471834513
H         7.35984400979396    0.81833524771908    0.89369095942468
H         8.45271560941661    1.04825696689200    2.38768399802696
H         7.56445675704909    3.33435685015502    2.15141264074438
H         7.01396853456713    2.89713477445444    0.65922243783418
