39
 energy: -54.506782395296 gnorm: 0.132070407604 xtb: 6.4.1 (79825abcba525fcdf90b791dcacef51065a7a4e7)
C         2.97428122850781   -0.19056367945677   -1.18893836480261
C         2.99683514771478    0.11721548104986    0.31182926280790
C         2.35961964822025   -1.06197441069412    1.06267713458774
O         0.97443274299083   -0.82524217096282    1.29469781859778
C         0.43254547634131   -1.04263320502665    2.58176231664751
C         1.34801089318366   -0.35834119355344    3.57953591488465
N         2.15325348582203   -0.98547406541225    4.37474782746975
O         1.32485961921819    0.96426484914557    3.76383107616691
C         1.06056946310087    1.77849279025746    2.60552113712794
C         2.34147319492964    2.23428006919713    1.88518046137401
C         2.42838772920575    1.54245787239038    0.50202168258823
C         3.66618363380428    2.11867234567073    2.68674749756820
N         3.74216506266515    3.11567267677129    3.63165290398093
N         4.45469142135829    1.12437489883281    2.45482479576218
C         5.84463730276095    1.16442523342262    2.93328175775802
C         6.32943217870606   -0.29218962206725    2.84876179643600
N         6.30148012352112   -0.82408075365375    1.48442963336413
H         3.67420256553381   -0.96313722621343   -1.52272599604892
H         3.22236898667164    0.70917592672105   -1.76243984572779
H         2.01363284443424   -0.52471770126717   -1.57550350057790
H         4.00085587183949    0.33085316040782    0.71382284372249
H         2.81190504013377   -1.24195822671948    2.03534455085530
H         2.44795645372991   -1.99207824841153    0.48707832971911
H         0.26213060489819   -2.11624218595275    2.72666338304014
H        -0.51527732428605   -0.51381081203451    2.47730996173267
H         2.14985980255062   -2.01138880647141    4.26907335646765
H         0.51113722594261    2.58971046388287    3.10470686591397
H         0.36881296520148    1.26748886357753    1.93381677570364
H         2.25234691410719    3.33405084754684    1.82926495087356
H         3.12542879040491    2.16977680721887   -0.07036450340013
H         1.46136417837067    1.63055140170770   -0.01460084622493
H         2.82904820005148    3.43077965542078    3.95738566544357
H         4.34903655473421    2.85095351829313    4.39787106378784
H         5.89484882597915    1.43498529778869    3.99484291947867
H         6.57984502608348    1.88117095698041    2.54755843521125
H         5.64546593356290   -0.91663018967875    3.43431340652159
H         7.33677722962028   -0.32748177126037    3.27597710244992
H         7.12964831541691   -0.42903954007477    1.03226289744064
H         5.50988077647981   -0.43314106373340    0.97950006557463
