39
 energy: -54.513751216429 gnorm: 0.116327552273 xtb: 6.4.1 (79825abcba525fcdf90b791dcacef51065a7a4e7)
C         3.34736279459375   -0.38921230256705   -0.99345134533676
C         2.61301889140799   -0.26781630224787    0.34578060298410
C         1.25761229029230   -0.99059078834193    0.31794328029550
O         0.32058257267588   -0.69474954684367    1.34899700366851
C         0.69216597094693   -1.19765619395991    2.61645365867025
C         1.71889890373932   -0.38503940836465    3.38284656402250
N         2.79921164342298   -0.93589293401366    3.83402062719228
O         1.49139146448870    0.88328700650982    3.73409562083663
C         1.17246043667527    1.85909678420959    2.72385969917072
C         2.41543982194029    2.05933783066234    1.83940910196987
C         2.44865194864862    1.26049278705392    0.51274267103967
C         3.74058369622150    2.09538267194659    2.64775745362442
N         3.61288514568465    2.47108794300724    3.96501508456052
N         4.82025866106016    1.76689465167879    2.02281133328517
C         6.14165179704625    1.73430975570727    2.66727470531974
C         6.36909674369490    0.33928878387780    3.27232165286473
N         5.91845134050902   -0.67618385224013    2.31794971849870
H         3.26618390638568   -1.43662269096062   -1.30088494299393
H         4.42020317352762   -0.17142962570328   -0.95386511209787
H         2.81890539060432    0.28218665134617   -1.66716720196635
H         3.02990668316657   -0.57840825740856    1.31790956371792
H         1.39042953558810   -2.06524927970049    0.42044628042618
H         0.67872592005935   -0.89398953426409   -0.60929417254905
H         0.97223453713491   -2.25795384493649    2.61438405083570
H        -0.24563786757588   -1.11716375735017    3.16688658828616
H         2.93768221877094   -1.90677144729140    3.51480208293393
H         0.90485252369532    2.77949691427552    3.26273435095271
H         0.39563043687041    1.54887787925465    2.02304716938293
H         2.25268676598874    3.09764648117614    1.49883254032826
H         3.33580507326739    1.63230541161643   -0.01804536189111
H         1.50707721799646    1.52647662936223    0.01026532261130
H         2.80086552311412    2.25413455289526    4.54184433562053
H         4.47467404082229    2.36093001047959    4.48525025531559
H         6.25928046035749    2.55539542800239    3.38464340859500
H         6.98581806357680    2.02055188726137    2.02814555788711
H         5.78275723464756    0.17606213091978    4.18345807089604
H         7.44478320409354    0.16914567519305    3.38391226480633
H         6.48356634720678   -0.64211754299917    1.46597590026912
H         4.96068671949813   -0.37950247223329    2.14740844561521
