39
 energy: -54.526394167817 gnorm: 0.109424137430 xtb: 6.4.1 (79825abcba525fcdf90b791dcacef51065a7a4e7)
C         3.50426163503443   -1.18692837648254   -0.01285720848306
C         2.52610573933044   -0.46703554395997    0.92122284022434
C         1.15534116517928   -1.08460491832812    0.60512553742264
O         0.02646672079927   -0.34964977558574    1.06783705708485
C        -0.37035667597146   -0.61019156510993    2.39903383477437
C         0.75789851180879   -0.53127332418470    3.41031855148226
N         1.33488734608115   -1.54081832748756    3.97774785956608
O         1.16535185419155    0.71588805951984    3.66003374198772
C         1.33920714024886    1.75750252415052    2.68058901559623
C         2.68892631381629    1.93103893247827    1.96261243070773
C         2.61394540491993    1.05845098045736    0.68500981117500
C         3.97119786793162    1.81067321584520    2.82980582012184
N         3.76806747591485    2.14021340674984    4.14994610823819
N         5.06428090860077    1.43835077596015    2.25473576687080
C         6.30882864676703    1.38761484413355    3.03640158536976
C         7.41657799722969    0.81351896875978    2.13795746347777
N         7.27508113258387    1.27723629979060    0.75591671840952
H         3.48112828480794   -2.26358290720744    0.18323925283800
H         4.55019409796821   -0.86535284779666    0.03810659119975
H         3.14648074589010   -1.17218167430919   -1.04033577732537
H         2.94584947180851   -0.69072227085279    1.91574632670250
H         1.03631931395072   -2.03788723903149    1.11514983144425
H         1.03837038383242   -1.08453473354121   -0.48598782423879
H        -1.04214653682724   -1.47696247287138    2.40799856127872
H        -1.00760903450711    0.23964017047397    2.64525920997705
H         0.93266731513310   -2.47124087205218    3.78745177578357
H         0.97693440341082    2.67919132022768    3.15848494035438
H         0.61083685440958    1.54694512893754    1.89574435799912
H         2.76028584764525    2.99402243611748    1.67014072489267
H         3.55701405311004    1.21481031126085    0.14353541014327
H         1.81175240992661    1.40101140641012    0.01498547021038
H         2.81823186700226    1.98864774462250    4.48760985964822
H         4.52778416897628    1.91177612174915    4.77931599820722
H         6.22535221238538    0.82571665315674    3.97445177335101
H         6.53353056057880    2.44280354799282    3.23419736838129
H         7.27504547548034   -0.27272312852744    2.11239992235946
H         8.40489004421521    1.09183113580590    2.51780498769926
H         7.48278387970579    2.27561933352989    0.67550677842359
H         6.26621920322998    1.27328382913305    0.62707874995858
