39
 energy: -54.510665889216 gnorm: 0.128509670311 xtb: 6.4.1 (79825abcba525fcdf90b791dcacef51065a7a4e7)
C         2.46442888833332   -2.73898711130625    0.72256421784513
C         2.03183279823447   -1.33649592983597    1.16235879095109
C         0.53929389142908   -1.17944792349609    0.83377324448491
O         0.08500694495697    0.16342783028202    0.97134719321047
C        -0.51205475105687    0.55737367341612    2.19026461738048
C         0.31548016779309    0.40492168791610    3.45273401466179
N        -0.16182034161194   -0.17466669898744    4.50645825526816
O         1.62844148718942    0.64816208570496    3.42527309517864
C         2.12787839617496    1.49587079339738    2.37339332770522
C         3.28328071561495    1.02038000291453    1.47545063250887
C         2.87007250686007   -0.17469171014825    0.58082062703575
C         4.56705073940697    0.95634816796055    2.34640817957558
N         4.39698986876482    0.08656327049682    3.39863562005262
N         5.60341977315708    1.55786265982663    1.86862200329436
C         6.79474234746412    1.47380525284572    2.72661940459068
C         7.34431093213262    2.90957579444896    2.74744883257555
N         7.68965735001731    3.29805812418606    1.37817563847085
H         1.68569557461746   -3.43688266686028    1.04612281853638
H         3.50952183638565   -3.00688730632598    0.91228257439676
H         2.29642448172964   -2.79057476413397   -0.35123747159862
H         2.19985935362550   -1.50701809723015    2.23845672623811
H        -0.09709260799211   -1.86714287628219    1.38615538473779
H         0.44056075227615   -1.28432403648514   -0.25409774878028
H        -1.44158341502851    0.01999378481446    2.41358750022240
H        -0.67476386105805    1.62333023872427    2.02841955196087
H        -1.18613078473044   -0.28967333900037    4.47122682270963
H         2.36175649916060    2.46264166737645    2.84221247798227
H         1.21899762246843    1.65680142611691    1.79126285280857
H         3.40565676546233    1.85833993308065    0.76593456221017
H         3.77879051762552   -0.69109936873729    0.24232996415300
H         2.23495397521343    0.16523503206902   -0.25036414007788
H         3.44441475538303   -0.14901485184824    3.67482439255639
H         5.05203018939534   -0.03069412048613    4.16193921222411
H         7.55121203916926    0.76306288956443    2.37273390393385
H         6.48337368604870    1.10758918455170    3.71250614805845
H         8.30540966549730    2.94583262424758    3.27240712069651
H         6.55606908722028    3.62110071625271    3.01373737399558
H         6.86358407000726    3.46183205372864    0.79752435928899
H         8.21291587345961    2.52330327528432    0.97771006144938
