39
 energy: -54.521313389721 gnorm: 0.115725590950 xtb: 6.4.1 (79825abcba525fcdf90b791dcacef51065a7a4e7)
C         3.90227867390010   -0.87171365173385    0.16313465138165
C         2.73206969650243   -0.37217428389843    1.01672210841428
C         1.43099044458908   -1.12045668653356    0.68874167765335
O         0.19206793745897   -0.49968741860459    1.01788457424727
C        -0.29037984269012   -0.84367759044960    2.30098650819533
C         0.66334376671531   -0.50975427844184    3.43270691909543
N         0.91225196266143   -1.31386786800884    4.41531532272909
O         1.14324520504894    0.71421666492504    3.66803036864766
C         1.15524048110271    1.81044774006555    2.73388271068279
C         2.51262111895158    2.00379604944842    2.03568409831666
C         2.59600891365068    1.14463725635656    0.74952976930347
C         3.85176154750817    1.82531939515645    2.80091712215533
N         3.88550969562747    2.25097670234875    4.10870378380631
N         4.79801607470584    1.40584054942979    2.03098209423348
C         6.09507165509733    1.38100293521717    2.72344478419061
C         7.14258108099253    0.54777803631842    1.96690211941337
N         7.42695634981478    1.01599490937716    0.60859603864387
H         3.99226379440324   -1.95682990200778    0.27538149367940
H         4.71706890823924   -0.28744356108303    0.60441481719294
H         3.77698677408797   -0.69324889069434   -0.90288087635415
H         2.94016607760056   -0.57945870693270    2.07927873090627
H         1.46683846733193   -2.10732329483447    1.14464448962448
H         1.32967836815743   -1.24758870183336   -0.39651582344101
H        -0.60984010738635   -1.88316402285663    2.44271467904903
H        -1.12937172770362   -0.15077469728188    2.37105553482092
H         0.51002096013422   -2.23815405712194    4.19717563336249
H         0.74974701782786    2.65894269558225    3.30376658209334
H         0.48852604557719    1.57991454308069    1.90130531612377
H         2.39685980513369    3.06410395459329    1.74773920669311
H         3.56734496577174    1.36642368998270    0.28656293594427
H         1.75294583667460    1.37132593585511    0.08046269259295
H         2.94174688513272    2.42742398663686    4.45127457471855
H         4.69000589146074    2.17127729928377    4.71853438380103
H         5.89658209503287    0.83372608588022    3.65281338492888
H         6.44415840791236    2.38689173903310    2.98681424432238
H         6.73391635687650   -0.46283008430480    1.85612800032910
H         8.04939074620612    0.41655516104306    2.56605092584541
H         8.26575548637773    1.60100306824991    0.58500932059073
H         6.61777155021835    1.38258110723349    0.11336704645779
