39
 energy: -54.521405930612 gnorm: 0.108161317140 xtb: 6.4.1 (79825abcba525fcdf90b791dcacef51065a7a4e7)
C         3.54110138968249   -1.46883145005577    0.19492599948448
C         2.46406343256481   -0.65411739461053    0.91864584155342
C         1.02339534969728   -0.97245129146626    0.49034228806677
O         0.05070002494225   -0.08339830710784    1.03077461866197
C        -0.39955917075478   -0.34276639992555    2.34509213136415
C         0.68043550713465   -0.25723305632118    3.40725038302160
N         0.78056296289125   -1.17739035576029    4.31132907253821
O         1.42201255840957    0.83498233600414    3.60952845319851
C         1.46718960056644    1.97894010813100    2.73556165059795
C         2.69052790533184    1.89638592932021    1.80605894146704
C         2.77128202037292    0.84145722977947    0.67473028853523
C         4.06777829355226    1.89873329154956    2.52293305114569
N         4.23649926468927    1.00812129927992    3.55781110136630
N         4.93759943541113    2.50199273225408    1.78560725368500
C         6.39059197184538    2.34044668904344    1.94432150555079
C         6.92481163418531    0.90203438785408    1.84697713659823
N         7.07425527928214    0.23357174825157    3.14154889466691
H         3.44965220374251   -2.47371086121850    0.61922349788031
H         4.57245186415712   -1.15227174335566    0.38489702722111
H         3.39250358890659   -1.64376520949150   -0.86867811157276
H         2.61948333442821   -0.78730652612359    2.00188303587256
H         0.82699467399368   -2.01907008976082    0.71182371092280
H         0.83965635086461   -0.85926444402044   -0.58559416251402
H        -0.87601591581924   -1.30947098079365    2.54793445943753
H        -1.22043972884834    0.35123387366614    2.52798608896317
H         0.14550424902846   -1.98350243391269    4.20855062323577
H         1.62183183034733    2.84582426803548    3.39414643942002
H         0.47679376686216    2.11116532077775    2.29684604032183
H         2.71573056262567    2.83197066362469    1.21902245172455
H         3.77171507502614    0.97682842925749    0.24133719382366
H         2.06082545060935    1.25288718161040   -0.05723332353431
H         3.54251953660219    0.90592278005115    4.29748956819359
H         5.21641316018663    1.00012871557973    3.81308425876633
H         6.74515556445594    2.90604618033666    2.81438927146234
H         6.79195259987180    2.90281193493294    1.09244575320748
H         7.82581682245254    0.81838920943164    1.22907773974988
H         6.09095777353491    0.36596628362183    1.38241149898996
H         7.98155810427751    0.47840533421312    3.54556989622800
H         6.93663904651038   -0.74371702607341    2.89581395665683
