39
 energy: -54.526988292709 gnorm: 0.101903276967 xtb: 6.4.1 (79825abcba525fcdf90b791dcacef51065a7a4e7)
C         2.38800210512364   -2.55331928415510    0.75142323254636
C         1.88251905442868   -1.16441883171109    1.15513426115737
C         0.48212131169474   -0.94919474690821    0.56110589385429
O        -0.15474598123774    0.26500835728857    0.94676039368798
C        -0.57176113084869    0.15032642294982    2.29226479933915
C         0.47299733702984    0.07752685136607    3.39001913730585
N         0.38368690776086   -0.60655264786617    4.48461135831604
O         1.46563513805841    0.96989982078285    3.34388792833621
C         1.95451278014471    1.79114031769441    2.26636251285901
C         3.13848921628555    1.16788514154245    1.50669160887998
C         2.90238321565844   -0.11076902628347    0.66490910890355
C         4.39722035791494    1.07183585070556    2.41062914327053
N         4.29136721962568    0.11774593265518    3.39609177934792
N         5.32867180077462    1.95655538249682    2.29302958884467
C         6.55277031476569    1.94526448377972    3.10784858503824
C         7.49756901294942    2.87954558090950    2.33430428293069
N         8.25969747882956    2.32158392237206    1.21496039754575
H         1.93843271344796   -3.30970042435603    1.40253680479424
H         3.48014622181847   -2.59476811912175    0.82549123842174
H         2.10842636577710   -2.77613930386877   -0.27625642637113
H         1.79547491809660   -1.06770686401972    2.24983404931069
H        -0.20303226284332   -1.73974531532776    0.85881807084689
H         0.55209291327906   -0.93006266217167   -0.53385916094659
H        -1.17398643149864   -0.76593054036297    2.31398246503418
H        -1.33786658691882    0.91855769507267    2.40105181490905
H        -0.51392372959367   -1.11236048300129    4.53079839225588
H         2.23910308296258    2.68774675430256    2.83578462710397
H         1.12924313686934    2.01397410289776    1.58804552686064
H         3.38592635352406    1.97470175036824    0.79367854543207
H         3.93728902191403   -0.47352928464771    0.59860523657105
H         2.59003534814633    0.12237299158929   -0.36362259869390
H         3.67359589330100   -0.69237163175860    3.43137278926917
H         4.95669453756548    0.16047477621666    4.15830782814750
H         6.90463147781220    0.91149311264426    3.20857852623497
H         6.37239111782224    2.34571021946787    4.11290772611013
H         8.27669612862825    3.23679004101395    3.01690509517600
H         6.90301176327209    3.73701053863652    2.00300678925287
H         7.60005595963772    1.89536773998072    0.55953099367888
H         8.81348179895497    1.59302081448171    1.65873507129131
