39
 energy: -54.515105065775 gnorm: 0.116842917021 xtb: 6.4.1 (79825abcba525fcdf90b791dcacef51065a7a4e7)
C         3.32729977568262   -0.35398673917761   -1.02523486844894
C         2.72475811886119   -0.16636874621384    0.37093245831450
C         1.44917640769732   -1.02226089078701    0.39632632914073
O         0.36421463315110   -0.77835708611247    1.28626305633265
C         0.53161547560195   -1.14805246380443    2.64004958247458
C         1.60181641086430   -0.44439261331114    3.45332529613360
N         2.56723429442880   -1.04105131277096    4.07464642769744
O         1.48943183578618    0.85192701403942    3.75451052893612
C         1.20649411779200    1.77794350659854    2.68823756646429
C         2.45966906809298    2.08308035655158    1.84931496650355
C         2.46722942362750    1.35409970948652    0.48262907830625
C         3.76177056429722    2.04945144843063    2.69437907974328
N         3.67491891659079    2.40603197071057    4.02025092385872
N         4.82118759092071    1.83842574381813    1.98920975680190
C         6.18343667438485    1.77585313818694    2.53951578993002
C         6.34002502480191    0.37230498441219    3.14732266145517
N         5.99324789109998   -0.66443562939963    2.17264001464604
H         3.08865717904468   -1.37722422699655   -1.33216923454007
H         4.41881061552518   -0.40186538681577   -1.10457315102171
H         2.95596405157219    0.35169966643464   -1.76554109429798
H         3.34857763763206   -0.42676123119125    1.24176106285981
H         1.74921443424024   -2.03296112663528    0.66372186374949
H         0.94700229085720   -1.00744329265345   -0.57928226007042
H         0.58339068942986   -2.23172858646323    2.80017194952707
H        -0.41613555413090   -0.80857754154684    3.05892455120226
H         2.55776908683462   -2.07120256269284    4.12341602235100
H         0.77855342039364    2.67210075148986    3.16414287020849
H         0.46247569589145    1.43780407047059    1.96603221695037
H         2.30392905305120    3.16268695580594    1.67392843801067
H         3.27749444827947    1.84351921439075   -0.07500912209934
H         1.45687525474942    1.51225174381751    0.07770162057761
H         2.74277012349318    2.51653797472771    4.41782315497567
H         4.36908408595794    1.93007155943425    4.58332809765709
H         6.33382242579839    2.47025836786520    3.37487292448677
H         7.01939576164498    2.01087976290887    1.86946191468818
H         5.70606907505444    0.26633472194501    4.03472149458924
H         7.38863850189074    0.19519244096967    3.40721384200088
H         6.51970800439638   -0.33610497935529    1.35936662574162
H         5.01887927887182   -0.43785962426033    1.98910157819680
