39
 energy: -54.504814940871 gnorm: 0.117183424906 xtb: 6.4.1 (79825abcba525fcdf90b791dcacef51065a7a4e7)
C         3.24142565358668   -0.21014112641469   -1.27496098604380
C         2.94469099659096    0.15197024745015    0.18393039254017
C         2.33122246133291   -0.91163313929802    1.10735290077418
O         0.96432980682696   -0.59666931129392    1.35437674707967
C         0.65470240023043   -1.02550436023067    2.66497472589980
C         1.45837805111235   -0.34674896194513    3.75826388651859
N         2.15376889063234   -0.95202819755299    4.66608648966924
O         1.54386284200277    0.98593032680861    3.77937509397988
C         1.15277004848403    1.90326241616159    2.74012219187104
C         2.26174332212058    2.24045665428275    1.72827959975079
C         2.21544729756616    1.50302417449269    0.36690150774028
C         3.61289484965873    2.11407119446364    2.48269915935676
N         3.54895871837317    2.93857430580560    3.58212439976447
N         4.55857707523133    1.26820457341133    2.24955787312596
C         5.64679609448050    0.93248011586267    3.17990355748181
C         6.05137322775520   -0.46644873025294    2.68673830860015
N         6.63074972868290   -0.52351412026397    1.34280447243977
H         3.44618938512552   -1.28274745997590   -1.35086497093205
H         4.16637229717759    0.28513929561219   -1.58984803617552
H         2.48156392451953   -0.02705893252139   -2.03194704402656
H         3.92464063841546    0.39771098727789    0.62507402473184
H         2.81726957054433   -0.98567643346437    2.07756625734828
H         2.28491584262681   -1.91922637329796    0.67512367676674
H         0.92098191883961   -2.07839284376253    2.81727329997246
H        -0.43149337452994   -1.02111457148354    2.76032116597453
H         1.93966989999691   -1.96090077381331    4.67025951944473
H         0.74219671807643    2.78509879864292    3.25288960544442
H         0.30066191936462    1.46967993259221    2.21404540599728
H         2.18435143024665    3.32023206837189    1.50768641819057
H         2.76282867925590    2.16578765302816   -0.31730564643203
H         1.17680074802683    1.28445663766487    0.07839598613706
H         2.77035785778732    3.51484865053640    3.89971723567316
H         4.21278070521355    2.82850382338635    4.33888351568917
H         5.13767526899298    0.79480158811230    4.14140064709300
H         6.55212102188486    1.55118508735264    3.20496836582787
H         5.19228394331120   -1.14626389346402    2.66615966503557
H         6.79257421312385   -0.80386323656132    3.41836325154224
H         6.61735074391165    0.44397397553220    1.01089767323845
H         6.02374381395378   -1.13483104813732    0.80220048673428
