39
 energy: -54.533133923342 gnorm: 0.104374207673 xtb: 6.4.1 (79825abcba525fcdf90b791dcacef51065a7a4e7)
C         2.92109167578952   -2.57379097589537    1.12200007461423
C         2.15558663742098   -1.27571532196312    1.39866199370361
C         0.67985630868830   -1.51120013436475    1.04219060091901
O        -0.08177489426495   -0.30764874062636    1.04150496647554
C        -0.62594785821176    0.14724257849471    2.26395551733301
C         0.34578294841173    0.61820800328836    3.32970192916401
N        -0.02085939314067    0.71489366248983    4.56675428088151
O         1.56496934003693    1.14040798587606    3.17260601140708
C         1.98253847933165    1.78688059281906    1.95514656112325
C         3.16412924811899    1.13498558748402    1.21607736965958
C         2.72054549550013   -0.15944981117582    0.49014983553497
C         4.45606525196880    0.98683717631081    2.06442048473966
N         4.25663709787048    0.35642587897793    3.27083628536739
N         5.57858420486406    1.18322715379286    1.45981956015012
C         6.83828863563756    1.01339564007016    2.19926303813607
C         7.32791066219259    2.27932479170659    2.92147504335227
N         7.32025703894877    3.55289572543580    2.19825292094964
H         2.35698238837248   -3.36935667975926    1.61902107672340
H         3.97556158732312   -2.49885994574256    1.40916099568696
H         2.95451419764194   -2.75827510315524    0.05018601385678
H         2.22135569853366   -1.06753333903490    2.47923230985069
H         0.19427212106898   -2.33934077344672    1.55349211434528
H         0.60594209222005   -1.73129284470213   -0.03033279012706
H        -1.26413842105870   -0.63873678022550    2.68540899974947
H        -1.21834818939960    1.01006531815492    1.95812837621935
H        -0.87991316652747    0.21564151547369    4.84325666909999
H         2.33341462408492    2.75172084670237    2.34898092959906
H         1.12246071722728    1.91071296053695    1.29501732834515
H         3.47687779166543    1.86599685160366    0.44902020373178
H         3.58389196615743   -0.51467270135553   -0.08904858289989
H         1.99131341286481    0.21314650781327   -0.24414331317706
H         3.32600716557857    0.23652574919261    3.66924377213172
H         4.99862825736398    0.39945253816094    3.95862791841164
H         7.51897524487058    0.74263094007098    1.38318199597803
H         6.85272051300405    0.20785685744450    2.94353201228092
H         8.33499404220371    1.99263874931794    3.24427639580877
H         6.77735600346708    2.41438617571464    3.85803817156677
H         6.58937359617499    3.56954045121713    1.48277600557475
H         8.22978566753904    3.64673184521183    1.75286579543431
