39
 energy: -54.526464681841 gnorm: 0.104264250141 xtb: 6.4.1 (79825abcba525fcdf90b791dcacef51065a7a4e7)
C         2.97833315683198   -2.49506618529683    1.14574479632483
C         2.23384315881439   -1.17342463030295    1.36147245191543
C         0.77220046403657   -1.47587702421120    0.99756568602467
O        -0.00015027774183   -0.28084495614671    1.06074165578404
C        -0.52713702123593    0.08293309561404    2.32065679517814
C         0.40539764225589    0.55837881994469    3.41893500543794
N         0.17903993172090    0.22887628415135    4.64948913785483
O         1.46958940499693    1.32084375816680    3.15449130445306
C         1.83954624632236    1.85668980956242    1.86977373726767
C         3.07890778572028    1.31250208536124    1.13820709140885
C         2.71229703205535   -0.02347085324112    0.44533396422646
C         4.30152184992350    1.02535440349352    2.05116581727773
N         4.18957993978518    0.77679667152161    3.39961570364067
N         5.43785604763372    1.00800971597031    1.44075298060872
C         6.70580077155170    0.89923425419594    2.17761030264407
C         7.16398140711150    2.16885894839170    2.91383048386225
N         7.67625044630710    3.32540501465031    2.17553964631832
H         2.65621887246307   -3.23655333598632    1.88372389160803
H         4.04137973172744   -2.29233568262639    1.31549511782276
H         2.71837892568631   -2.74436465922411    0.11899706272065
H         2.35709350196874   -0.98830018683250    2.44121121751487
H         0.19854283795749   -2.17737038146147    1.59911548194061
H         0.76159095705603   -1.78288013017293   -0.05592710703942
H        -1.16331044707209   -0.70907051302632    2.73380014637000
H        -1.19822051877587    0.89251454838790    2.03228849896062
H        -0.69844971179401   -0.27872707884304    4.83930590632024
H         1.89451277930980    2.93003118137027    2.10226728697031
H         1.03006119522825    1.62526576703165    1.17550024948270
H         3.40073945968619    2.09070539718551    0.42309188426736
H         3.60366711396010   -0.35059666015188   -0.10735882060020
H         1.98126032739516    0.17652393194989   -0.35177411182438
H         3.22627407305020    0.84200689353967    3.72667237826920
H         4.89343708451378    0.21437487135451    3.86192115328042
H         7.47328405704086    0.64469943322706    1.43678814147378
H         6.64126641027805    0.18956577292276    3.01142279668032
H         7.93521977575003    1.85467382707312    3.62592992796157
H         6.35182128091484    2.50059365287168    3.56869727602553
H         7.13533500988080    3.66246715528938    1.37543060885182
H         8.58225777024596    3.13789386163402    1.75315649068800
