39
 energy: -54.518438585618 gnorm: 0.113474991932 xtb: 6.4.1 (79825abcba525fcdf90b791dcacef51065a7a4e7)
C         3.92721859790007   -0.93984044262485    0.01366764030126
C         2.78610171004466   -0.41172749700587    0.88916129668187
C         1.45409467843318   -1.11597590433453    0.58900068738545
O         0.25836088963425   -0.45972091622387    0.99908434390474
C        -0.29365279705362   -0.62840881957457    2.28914672708269
C         0.59184671394280   -0.53487050442580    3.51757084420395
N         0.42267051627806   -1.16265096308233    4.63620588462760
O         1.29333826258009    0.58665422049056    3.70163417567113
C         1.32405949285688    1.73833179017692    2.83723073447219
C         2.58065499781572    1.95419238053391    1.97599960460626
C         2.59087655561277    1.10758226166553    0.67890779511994
C         3.86859143251586    1.79191197634848    2.82783142209851
N         3.71770964921628    1.58011048112910    4.17875846744412
N         4.97722005433647    1.77999471509241    2.16831594861490
C         6.27847395003273    1.57647114399744    2.82237336803686
C         7.16017712093663    0.69097913246025    1.92660557038594
N         7.20793109013010    1.14846463025335    0.53609547619896
H         4.11895641166820   -1.99397561612916    0.23774262450371
H         4.82222653043728   -0.31447900348255    0.10236215963109
H         3.71294692279377   -0.83443556081824   -1.04789455592405
H         3.16825983485693   -0.64402218077262    1.89677821771898
H         1.55273827596887   -2.14809691966164    0.91768565500886
H         1.24054148522475   -1.16557317253151   -0.48624146055949
H        -0.71282193740619   -1.64078641416883    2.33456287331152
H        -1.09503445489047    0.10339846895557    2.39486807461402
H        -0.15642285596356   -2.00704998722159    4.51242859066811
H         1.29299082917777    2.47696923275894    3.65122444668140
H         0.52581388974191    1.76225649505378    2.09354371181048
H         2.71899836364529    2.92868980061837    1.47422106857477
H         3.53198798749731    1.43005096442572    0.21270563381509
H         1.70534449122094    1.41793624403896    0.10505481942394
H         2.82937961771027    1.26959916536761    4.57071396772732
H         4.51733781760817    1.20384138014555    4.67320346885260
H         6.21410256999330    1.12281958771455    3.81871298685916
H         6.75199775196392    2.55808809315775    2.94582657162728
H         6.70646868274974   -0.30623126795378    1.94467779508350
H         8.18937508436547    0.76026848196321    2.29328396216970
H         7.85071621596694    1.94327278343953    0.49759673466702
H         6.24668070594824    1.42584600550118    0.35313507685033
