39
 energy: -54.512856209166 gnorm: 0.109878109663 xtb: 6.4.1 (79825abcba525fcdf90b791dcacef51065a7a4e7)
C         3.68083614012864   -1.32939239557758    0.37050745408928
C         2.50973556868334   -0.48923622809447    0.89031630216679
C         1.12077622961283   -1.02904059798576    0.51654078751107
O        -0.03289992204068   -0.28550736995831    0.89707749978808
C        -0.34214674304085   -0.42126838555116    2.26943715879037
C         0.76254072595273   -0.57665187879991    3.29773973814560
N         1.03435258753870   -1.61291753717990    4.02323615202956
O         1.38727044859084    0.55266807069352    3.64144986014379
C         1.45142548306454    1.73685148037539    2.82408083571203
C         2.76033631033620    1.85827827969609    2.02448400501248
C         2.70416835308680    1.03448026676423    0.71394887471037
C         4.13756060916305    1.70468018813332    2.72476500724440
N         4.17366589414559    0.94255572113581    3.86953213282148
N         5.04513316724362    2.48793847271871    2.24834228123997
C         6.42878333511299    2.50039257879530    2.74616932307900
C         7.06607534984170    1.17811526263925    2.28863448875839
N         6.38714526994077    0.85811379042638    1.03096014626962
H         3.63579052450774   -2.32983844755019    0.81238135186739
H         4.52484272344290   -0.81015407221063    0.83744138954958
H         3.63227069800036   -1.45040047573165   -0.70974033143839
H         2.56096617707761   -0.53384837655251    1.99062657765949
H         0.98072288680394   -1.98011408978488    1.02534569737150
H         1.16369896661010   -1.12155305183960   -0.57607516291107
H        -0.97751517691768   -1.29943352056340    2.43619069629631
H        -0.98875433135902    0.41400178667263    2.53990682803352
H         0.43056565529245   -2.37826607779361    3.68654249483723
H         1.41014089802459    2.47801502746151    3.63531968808383
H         0.60310607679487    1.83402783125340    2.14455912262862
H         2.74790674618778    2.93891542310223    1.79506149697241
H         3.67475895106141    1.22765624790293    0.23681349412944
H         1.85260641434365    1.36359453963864    0.10049966629819
H         3.45838293112634    0.22708185156447    3.99460835982907
H         5.08358372897310    0.61003259559897    4.16438363501652
H         6.43916951143781    2.62805707145980    3.83531116476572
H         7.05343322805936    3.32436648548104    2.38022283844385
H         6.85257707215861    0.30003549386731    2.90831258321932
H         8.15810498440335    1.24754560951636    2.25467554139024
H         6.62840361009402   -0.02410850716965    0.57286288339966
H         6.45992198196822    1.65059890000495    0.39764495022987
