39
 energy: -54.528657616996 gnorm: 0.103809489666 xtb: 6.4.1 (79825abcba525fcdf90b791dcacef51065a7a4e7)
C         3.82877865977428   -1.34585978413823    0.35870065971868
C         2.70971327774668   -0.61272263027837    1.10552243913468
C         1.34534911088084   -1.10925418550725    0.60325577286298
O         0.28997037976379   -0.24471544424058    1.01236092526416
C        -0.27463761240498   -0.57485485306575    2.26522223898377
C         0.48492494769013   -0.25526272643599    3.53911792171345
N         0.67875711895416   -1.16070794485710    4.44281659487424
O         1.14077712030598    0.89344753776360    3.72380703545000
C         1.23843746596901    1.92895650280671    2.72747277029766
C         2.58546527507241    1.86069268769313    1.98706529130304
C         2.62909467912299    0.89579387484579    0.77612884165698
C         3.88308457252204    1.65817796731670    2.81525884439378
N         3.95276200178819    0.60662351089295    3.69957063259224
N         4.90162569903194    2.30518806352143    2.35906590682562
C         6.31164750302404    2.13082236741341    2.73842028484080
C         7.17656930225177    1.04800373550426    2.07260454651186
N         7.17407843680656    1.03969073521604    0.60801708858510
H         3.62768436974260   -2.42151871216782    0.33237747843736
H         4.75363344082512   -1.25557593242512    0.93876557753188
H         4.01502758273988   -1.02168778561126   -0.66314115397338
H         2.79349769640747   -0.74145219216333    2.19717549337109
H         1.14547846994621   -2.15700938483979    0.81609123745836
H         1.51170406330449   -0.98633384177522   -0.47443952689190
H        -0.53917228313403   -1.63826093137845    2.22206309915140
H        -1.22753935597175   -0.04573479855896    2.23453493976437
H         0.20152106743576   -2.06021608679535    4.27907742017961
H         1.17401929271609    2.91124000217698    3.21747860033750
H         0.46139289997756    1.95689428200625    1.96179657250188
H         2.67898992071975    2.84686612801009    1.49790182418907
H         3.54403193261960    1.10261504569692    0.20417074431588
H         1.70643834183597    1.09883068442134    0.21285696179723
H         3.02337234094327    0.45645579708006    4.09054526247625
H         4.82096911592209    0.44851683271386    4.19623770784834
H         6.44116009129393    2.12875409897408    3.82739147229770
H         6.74782438564048    3.07993392527635    2.40379468444580
H         6.86088761388691    0.06094269406151    2.42850073746113
H         8.18899137159685    1.21924817971245    2.45231416526489
H         7.76002728331248    1.82212376854439    0.30662470783067
H         6.24085698603510    1.21189854116938    0.24214903956113
