39
 energy: -54.523540178726 gnorm: 0.111374204029 xtb: 6.4.1 (79825abcba525fcdf90b791dcacef51065a7a4e7)
C         3.05956436537524   -0.96072502851930   -0.76261738704407
C         2.31973688802943   -0.36380034287562    0.43899669370429
C         0.86940698943432   -0.87055919574995    0.43239495738006
O        -0.02084922513598   -0.16612424828329    1.29253086799965
C         0.00506120848312   -0.62746838530506    2.62816775934478
C         1.26221955826868   -0.45264355855140    3.45935591957078
N         1.84071948498973   -1.41438325171090    4.10314767156271
O         1.76094752373184    0.78167039755808    3.56671919228318
C         1.40087890951333    1.82305479025975    2.63915923856909
C         2.53089095086364    1.97445942748292    1.60596200881477
C         2.46901162729151    1.16744428595277    0.28528119576517
C         3.93936786756528    1.88983620217090    2.25385420504138
N         3.94972872024311    2.33242937837287    3.55640286155515
N         4.97569379627302    1.63868873090839    1.52782830336920
C         6.27110734662209    1.67231539104757    2.22298845956717
C         6.60939557138277    0.25468987795200    2.71267766518757
N         7.22138349822661    0.40825365057022    4.03441163666103
H         2.76134753208947   -2.00809011214346   -0.65186064237943
H         4.12387801044100   -0.87964698247574   -0.51635398367862
H         2.83548036937494   -0.50222464052219   -1.72360676886171
H         2.82629341827708   -0.71708162241150    1.35217264874737
H         0.89482178533102   -1.94135068076162    0.62159812545646
H         0.46823966999568   -0.73167224322106   -0.57952684056860
H        -0.28939573108874   -1.68383929777784    2.63519546288779
H        -0.79558586340031   -0.08278773642014    3.12938500094761
H         1.55926025069015   -2.39688183430833    3.96473925683413
H         1.30698319804013    2.71520134773280    3.27507935827477
H         0.48440428070786    1.56936096868872    2.10385324054611
H         2.55742093146021    3.02565548350775    1.26706848419008
H         3.47959107812683    1.31101722051766   -0.12108960097028
H         1.69517903724421    1.55659643596608   -0.39261081646485
H         3.33734044829423    1.80328251471675    4.17620996377909
H         4.87061799614256    2.39037777589781    3.97361315667913
H         6.34526228010479    2.44205695154033    3.00057126734558
H         6.96269245385900    1.88641082122879    1.39902819888716
H         7.11546667956378   -0.41053563357322    2.00417672215081
H         5.61167230445235   -0.16946571795541    2.86480531075901
H         7.93148447544954    1.14301085072820    4.08198610641877
H         7.67631104618997   -0.42611124235249    4.39675593049312
