39
 energy: -54.525137070155 gnorm: 0.103536232221 xtb: 6.4.1 (79825abcba525fcdf90b791dcacef51065a7a4e7)
C         3.22456160816299   -1.94119204078750    0.79910274334996
C         2.36399812674824   -0.71488463915744    1.12025822279146
C         0.99847895055257   -0.96938250995881    0.46383368017650
O         0.04588150853699   -0.01598656196371    0.92449928983703
C        -0.54359702153120   -0.28378913113046    2.18077653760042
C         0.31376194590015   -0.03721549061886    3.40797727312592
N         0.24399899857687   -0.79554592113857    4.45398937781107
O         1.20086616538867    0.95881660379381    3.47692338800457
C         1.51603819054135    1.86281794432717    2.40084417317949
C         2.89653197727922    1.65033995495201    1.75552480737600
C         2.88339233919044    0.63859048183890    0.58271166104176
C         4.11455181801838    1.50399622430277    2.70723052014466
N         3.90983315617186    0.92218673684739    3.93695285409180
N         5.22912133380639    1.94181871728451    2.22743230330750
C         6.53147813355928    1.69464407034215    2.86402172945607
C         7.67998736842190    1.99676590845716    1.88752520646382
N         7.87326534070266    0.83786091359637    1.01306847064014
H         2.69560711170190   -2.81956381383016    1.18230520202158
H         4.19776084616340   -1.84093559820139    1.29186509896993
H         3.31284322013758   -1.98571118910391   -0.28448446756750
H         2.28638673566839   -0.66917160933178    2.21897761995666
H         0.61392895594789   -1.95360614162156    0.72163847224317
H         1.15660654313719   -0.81984390188832   -0.61173333636261
H        -0.97058531835556   -1.29007936701872    2.26872391436101
H        -1.39532868876121    0.38860570905128    2.28740589133668
H        -0.55371209814391   -1.44916439308269    4.44305498121981
H         1.40751656400469    2.88054344028798    2.80283192382305
H         0.82498530900762    1.97074823019428    1.56320715637398
H         3.20484800169367    2.56740524176516    1.22214099032575
H         3.93412549841937    0.60138429833810    0.26396918342216
H         2.11752849275711    0.98455061151963   -0.12690656869529
H         3.04107658484270    0.50530226648447    4.26958775398547
H         4.55298155318515    1.23650582833827    4.65320919311888
H         6.56146454948784    0.67834744747881    3.27496945114348
H         6.73769150364728    2.34963918385075    3.71929639925314
H         8.59634096358740    2.22394641553620    2.44366515205634
H         7.30018172837344    2.79649120046499    1.24356120281747
H         7.04555739630950    0.72663527917362    0.42238811000701
H         7.89412675953142    0.02562548042074    1.62483283578468
