39
 energy: -54.521590386770 gnorm: 0.108100451464 xtb: 6.4.1 (79825abcba525fcdf90b791dcacef51065a7a4e7)
C         3.52420319761944   -1.79625007746102    1.19524440883272
C         2.33349553379889   -0.84637428297438    1.36104976695415
C         0.94382331365475   -1.37263772937689    0.97096918206048
O        -0.01227779426987   -0.31865382021832    1.03102841361055
C        -0.62598134484900   -0.14991342045262    2.29290412330880
C         0.43000924472049    0.27672431442452    3.29527565814360
N         0.63185575836410   -0.33123340884714    4.41942805463580
O         1.26003861956950    1.31415446221191    3.15897712609096
C         1.61724532207909    2.15519918694325    2.04562838223042
C         2.88560229500962    1.65946238180441    1.32948407222075
C         2.56708441277712    0.40328191406573    0.48104000945865
C         4.06365596932384    1.18054638675703    2.22030481004605
N         4.01559201613465    1.22522768545237    3.59446726817821
N         5.14926623162266    0.91101715184835    1.57768173085644
C         6.37302843238894    0.49419994120037    2.27849848351962
C         7.27506783021062    1.63852921488590    2.76914291027420
N         7.67848721180744    2.54620578168679    1.69282149476740
H         3.40058754409609   -2.73925521329835    1.73712487095157
H         4.45917806957235   -1.35225572728488    1.55395578849189
H         3.77493886044282   -1.97594820748369    0.15179961072191
H         2.38199778790389   -0.57963230580509    2.42959727032306
H         0.68469564233824   -2.24726394276349    1.56335419110719
H         0.95926595102091   -1.58721531517259   -0.10510168967597
H        -0.94364590348869   -1.13202936166392    2.66332454675095
H        -1.33519910679923    0.67652820940217    2.23872050357341
H        -0.04213387389870   -1.09821977427148    4.56485690289869
H         1.71402523851293    3.17041617695240    2.45685141269921
H         0.87235034589807    2.21957127321286    1.25075323173013
H         3.40276519459754    2.32770748718913    0.61775603670413
H         3.45506315465167    0.28917189207906   -0.15574401942581
H         1.71039457234813    0.54715686659872   -0.19362760061652
H         3.16041679891010    1.47845411441993    4.08815577707249
H         4.81266160072628    0.94134416590545    4.15083918368258
H         6.84395139349569   -0.21066076412086    1.58276937508325
H         6.24837210321576   -0.07042352610280    3.21053842211367
H         8.16322647592717    1.25233957908656    3.28162541132205
H         6.76495176169969    2.34973267522451    3.42677026322594
H         6.82435827091098    2.82124049246705    1.20170589701944
H         8.25628901117155    2.03514827485304    1.02996212808343
