39
 energy: -54.522430685521 gnorm: 0.109054083639 xtb: 6.4.1 (79825abcba525fcdf90b791dcacef51065a7a4e7)
C         3.30573135311916   -2.16841776628845    0.77599840115328
C         2.38953410550570   -1.01172739401747    1.18853950604630
C         1.02102007877415   -1.12075711538914    0.49891146698680
O         0.18026709527062   -0.02426338584549    0.84453328953508
C        -0.48008890460080   -0.15391545135025    2.08733495443538
C         0.34509743326520   -0.03316689064611    3.35476223529948
N         0.29754089334537   -0.71815598288138    4.45139415188570
O         1.10434557417015    1.05876575018137    3.47728887995400
C         1.52195263883810    1.97480722138968    2.44725457030836
C         2.83705520273064    1.55294262749500    1.76910813813645
C         2.96021593796202    0.36631038814656    0.78116296755626
C         4.05477117106566    1.43968730255055    2.72570296644110
N         3.83082336340505    1.18463000229246    4.05890295906799
N         5.21639936543461    1.55010612826379    2.17562322924444
C         6.46684505579761    1.41007779009635    2.93670948574767
C         7.59249235143602    2.03566204456787    2.09679339627349
N         7.56253357429270    1.65895795783184    0.68177104817906
H         3.10686663675191   -3.12156341604532    1.27613852663237
H         4.32567999198673   -1.83016704139507    0.98877544288798
H         3.14963464688236   -2.31234865412388   -0.29117288601985
H         2.27942307287266   -0.93201064728749    2.28253142355186
H         0.42167924771552   -2.00771349627950    0.69162137182507
H         1.20579610746756   -0.98158065104509   -0.57379458146041
H        -1.12219445149509   -1.03297176609574    2.22012897468950
H        -1.06330807912836    0.76474801771690    2.15693599474189
H        -0.47731534919577   -1.39877099172863    4.44501630756322
H         1.64078584533195    2.92895409790143    2.98075123173866
H         0.73041215614768    2.08438800791979    1.70408936565791
H         3.18844530805677    2.38603057510184    1.13424179187919
H         4.04264501153351    0.21425355442833    0.67049564422536
H         2.63600563302986    0.51484366152305   -0.25932701271751
H         2.84979604235006    1.23513530087014    4.33132037916252
H         4.65141879289360    1.35311409942943    4.62784562405839
H         6.70128945451140    0.34431326504240    3.04541941459640
H         6.37634731723655    1.91146703452992    3.90802627261127
H         8.58281619666109    1.71503337548431    2.43893733145677
H         7.75238862691961    3.11787403778268    2.05492591881832
H         6.59505810220338    1.68227963476367    0.35037674924239
H         7.95219390195704    0.74266118625821    0.47444934015167
