39
 energy: -54.520332697729 gnorm: 0.115598165802 xtb: 6.4.1 (79825abcba525fcdf90b791dcacef51065a7a4e7)
C         3.79175568075211   -1.40517132786967    0.04799115959798
C         2.76546933538614   -0.50198334029504    0.73974830509773
C         1.35375460555027   -1.05303453888895    0.48734187520543
O         0.31270325967615   -0.47111442629934    1.26593006694305
C         0.23968426344325   -0.86292123952838    2.62187671102881
C         0.71979874787808    0.16324467262255    3.63101404633730
N         0.67902521763552    0.00382254285243    4.91436720179308
O         0.99255707697383    1.44713573052954    3.38400390678551
C         1.31765764901153    2.04762423737825    2.11584719307014
C         2.78178324221084    1.91686666785138    1.66133013562034
C         2.93353148884712    1.00159340677618    0.42094809723012
C         3.78385603644704    1.56390211763666    2.79358395625255
N         3.59991807473135    2.31574198433954    3.93091972893945
N         4.69879923974507    0.78209210318073    2.32902815323499
C         5.95971162814951    0.58077157400881    3.05844204448252
C         7.05957356101619    1.22064853487179    2.19544857474482
N         7.13627580281523    0.56368817931580    0.88869243848536
H         3.73473079319977   -2.38133571692064    0.53995172164988
H         4.81588887602655   -1.02604441073323    0.13399591972381
H         3.58977468290840   -1.45296417926115   -1.02011761361406
H         3.00366679041039   -0.67358722427639    1.80234492727590
H         1.48793734599360   -2.08513548456549    0.80325450011638
H         0.90579052864450   -1.13829356766866   -0.51079118031790
H         0.83297680470899   -1.75759986385323    2.84599250506292
H        -0.82687444975698   -1.01653561192554    2.78856983674943
H         0.24828922282873   -0.90280057211742    5.15139186274061
H         1.13264818016944    3.12225213442812    2.25756048649936
H         0.68929546603519    1.61912522713080    1.33329472705065
H         3.04498388293307    2.93697993187536    1.32867395598964
H         3.99330394605910    1.09699306089282    0.14744769901010
H         2.20809263034020    1.23790694078777   -0.37131967583732
H         2.70754437615680    2.77280117343993    4.11515518249055
H         4.08714126376213    2.05140049357134    4.77838455139274
H         6.10154870315031   -0.50662553454613    3.04917823583662
H         5.98670647314632    0.86891276317081    4.11640387598479
H         8.04477561975408    1.23430011359077    2.67482011074709
H         6.90466203016951    2.28825673679989    2.00912185251069
H         6.20124031239940    0.63743972717977    0.48047164999633
H         7.24925191029372   -0.41900183127803    1.12528064249864
