39
 energy: -54.519549673902 gnorm: 0.122114038920 xtb: 6.4.1 (79825abcba525fcdf90b791dcacef51065a7a4e7)
C         3.12441098988668   -1.43032067042085   -0.27488724088969
C         2.15364334480967   -0.69507116117302    0.65492914701476
C         0.66574458754917   -1.06703251269402    0.56489034323524
O        -0.12870048603630   -0.06827837722994    1.19731877459583
C        -0.33604993495306   -0.12358564410526    2.59423788417403
C         0.89166667499281   -0.17099900852591    3.48437749925712
N         1.09832372961735   -1.24163520524039    4.18087175676183
O         1.67286640270340    0.89459803181699    3.67935791010733
C         1.68326511421721    1.88309066134672    2.63185013877504
C         2.81123447657519    1.73513541829818    1.59592471522807
C         2.35582297471587    0.82137862590089    0.43104308718071
C         4.22876726985310    1.49422625068350    2.18183953594781
N         4.33650393104145    0.72027521374213    3.31410349127497
N         5.09827232799416    2.19934252196859    1.54079967364307
C         6.45444288556914    2.31168682364747    2.09816385845251
C         7.33752077094565    1.07899717007036    2.35222328930202
N         7.07066007978088    0.67804305742825    3.73537654028574
H         3.01807781420072   -2.50465066842692   -0.09410487521596
H         4.10205082835215   -1.00578843352231   -0.02195330629695
H         2.83629646149398   -1.20017245354324   -1.29858575827206
H         2.44888672956237   -0.91662015307599    1.69370000876766
H         0.57921369216741   -2.08948231720088    0.92564921229667
H         0.34489346539540   -0.97444985299315   -0.48042948451496
H        -0.99353161098509   -0.91661583405413    2.97039577330182
H        -0.93384556180414    0.77259696983159    2.76284568388725
H         0.47864863681179   -2.06200697901747    4.09918579756199
H         1.65979065810480    2.83930893038376    3.17428157393459
H         0.75822804350933    1.72975311459755    2.07360929221609
H         2.79633133361243    2.78344051013720    1.24749948514508
H         3.06693047615364    1.05264023286360   -0.37385779209461
H         1.34724081426570    1.19745287675243    0.20493678117848
H         3.52674800043229    0.17546557289131    3.60847472546063
H         5.27741988519320    0.65257810215353    3.68227976508112
H         6.44243908186156    2.85627995186902    3.04995705109024
H         6.87345787243757    2.98133643566419    1.33722157319008
H         8.32466077490541    1.47144149634404    2.08361837697224
H         7.13752590548046    0.27504214352854    1.63656913240574
H         7.52067504632889    1.34621444263022    4.36577990410300
H         7.37096501517777   -0.27474900475336    3.92622063268464
