39
 energy: -54.519779070713 gnorm: 0.106802998485 xtb: 6.4.1 (79825abcba525fcdf90b791dcacef51065a7a4e7)
C         3.03775609538399   -2.45660395648678    1.49744581334194
C         2.26187881510311   -1.13636703902863    1.54773590698427
C         0.80672491111760   -1.39643384102128    1.12917012010794
O         0.18564848021597   -0.13783651647710    0.88665133588208
C        -0.50412272229326    0.36927456991592    2.01114665089923
C         0.39098251754844    0.43765318547396    3.23425562614773
N         0.38756818361126   -0.25186090625062    4.32907610267739
O         1.37286950472790    1.33615467862651    3.12298840135587
C         1.84134410068284    2.05139487574980    1.96391061652843
C         3.05003005363314    1.36577569203591    1.30334142192173
C         2.81944231016851   -0.01518437863242    0.64071115136848
C         4.30760548477611    1.10598547582456    2.17612185052590
N         4.08692198016413    0.85733432043798    3.51107519640859
N         5.39564741893066    1.11745972864410    1.48316213903407
C         6.72431809731665    0.77608462997929    2.01285252320819
C         7.43271597131531    1.94792594014312    2.71203555534431
N         7.12043709138476    3.20812485213346    2.03419166273620
H         2.70507720621388   -3.16673380274482    2.26113050365501
H         4.08257895374616   -2.21634955864689    1.72240328519399
H         3.06835097338385   -3.00365239470051    0.55737199133645
H         2.21731515424654   -0.87141213202851    2.61689935774600
H         0.27509642210069   -1.87058037615714    1.95111560127175
H         0.62664764883443   -2.00587264776433    0.23453776646255
H        -1.36800227715044   -0.24848339823977    2.28457120739403
H        -0.77758381491492    1.37486744225214    1.69031418251763
H        -0.38542159228362   -0.90862694458759    4.51569022593244
H         2.27516011180624    2.89044833066227    2.52687531797434
H         1.04768372950834    2.32612019547075    1.26715527512798
H         3.34843798696143    2.10356754150312    0.53706360965807
H         3.84650223466774   -0.25629951283515    0.33406373849590
H         2.17539017065439    0.10581964165580   -0.24266234174678
H         3.09063827587746    0.82546144460834    3.72456884758227
H         4.64992352059896    0.09330357915998    3.86426890004059
H         7.13330942325838    0.48339721494961    1.03832893679088
H         6.54426916333570   -0.09502849258748    2.65455465267684
H         8.52228004992540    1.83204091844238    2.70680964923475
H         7.02946629170439    2.03071446042728    3.72645078478361
H         6.13591168981474    3.42621063576450    2.20601481342409
H         7.43308055222271    3.20672090161491    1.06637487756136
