39
 energy: -54.525939195962 gnorm: 0.105480610308 xtb: 6.4.1 (79825abcba525fcdf90b791dcacef51065a7a4e7)
C         3.36303228643234   -1.43249337178773    0.02642282919417
C         2.38821729842523   -0.61350916355385    0.87879644434371
C         1.00909870352618   -1.11768511577393    0.42697409350106
O        -0.07889226738633   -0.38886982016100    0.98708338800565
C        -0.44616177892070   -0.59751704399960    2.33579207459278
C         0.54738770566541   -0.36366571358459    3.45831494716541
N         0.73526661899058   -1.26649859400839    4.36587626967976
O         1.29876528115522    0.72497194809065    3.64294212964779
C         1.44547806403080    1.83554283027019    2.73762118850555
C         2.78969067224190    1.76552273220691    1.99227781559097
C         2.73317735662983    0.88519139347060    0.71904442120699
C         4.04301354999500    1.57536900658156    2.88880217773598
N         3.91838534886924    1.77910113749867    4.24364168255418
N         5.10584447185632    1.33187157962747    2.19941148498400
C         6.40081511346354    1.33607700500882    2.89619553360900
C         7.53844246201596    1.13238534669492    1.88218850249199
N         7.49062010955863    2.07656551568872    0.76356051419346
H         3.18203557714769   -2.51146567654615    0.06153560629616
H         4.42488003681456   -1.30339796043647    0.26263581336827
H         3.18421893170114   -1.11885996671440   -1.00002576178395
H         2.60976938190463   -0.85517226463650    1.93132251558131
H         1.00346382310378   -2.16123396262596    0.73358820111085
H         0.72832339334646   -1.11001026568389   -0.63383543030752
H        -0.85704179188640   -1.60975007204286    2.43189464699213
H        -1.25821315874200    0.07801335550032    2.60627814412076
H         0.16598001567342   -2.12432583772357    4.42690778738186
H         1.22899373718436    2.73750952701160    3.32815221462825
H         0.63090479502169    1.69591322701480    2.02501134934560
H         2.99432751732660    2.78791589937431    1.62703572575570
H         3.75210447799203    0.76741650104340    0.32542299108155
H         2.18419350455139    1.44049753910996   -0.05558172962689
H         3.05550268038286    1.43812445310642    4.66595085573950
H         4.77964851370476    1.55582114420678    4.72720275643470
H         6.44393093059192    0.49095874058706    3.59372846815052
H         6.53041936534208    2.23517712598375    3.51089792412995
H         7.43097086770362    0.11604036501500    1.48709450043370
H         8.51568910544913    1.25904125142252    2.35910546037349
H         7.95136174717541    2.95086611208512    1.02755006311099
H         6.51075582186956    2.21126956013633    0.52662585220659
