39
 energy: -54.525161782345 gnorm: 0.113964148929 xtb: 6.4.1 (79825abcba525fcdf90b791dcacef51065a7a4e7)
C         3.22555336413782   -1.86378388307862    0.26748156051510
C         2.36328334162633   -0.89296443265229    1.08083277500909
C         0.91184490291042   -1.11308018421395    0.62786426129134
O         0.02889235410939   -0.09891053612414    1.09741004935481
C        -0.59170602978913   -0.32625735211623    2.34665252537915
C         0.37050706115352   -0.10517484616949    3.49867384800516
N         0.46039862651780   -0.92880262065963    4.49246962771379
O         1.42506343489177    0.71387503661013    3.46942378369997
C         1.60204975431977    1.76793039446040    2.50394904138947
C         2.92493078592240    1.52318871177262    1.75733375912785
C         2.85080746306256    0.49402248715815    0.60207494581946
C         4.14338229190640    1.30664573701264    2.69499982597269
N         4.10595546282237    0.18426228040155    3.48965927125421
N         5.09130589468566    2.17265743874884    2.57000130992842
C         6.43726040248750    2.17417006449180    3.16235153489033
C         7.46383711953061    1.64633271143826    2.14676082704077
N         7.39303167374983    2.24464609935842    0.81180786428090
H         3.03479852827453   -2.91818719074869    0.49113355030675
H         4.26496937026601   -1.65486749310935    0.54307394047001
H         3.09152897803336   -1.86564712510392   -0.81231973236323
H         2.54565561216276   -0.96083813642714    2.16592771676984
H         0.53621492348867   -2.10968460964719    0.84859011047020
H         0.86142386376136   -0.95805928556449   -0.45732548104834
H        -0.96021635456067   -1.35809623643589    2.39336924435636
H        -1.42594955282704    0.37473585430724    2.38637337453792
H        -0.28526811199724   -1.63700056031310    4.57067741905012
H         1.73307918954491    2.69453206488842    3.08133706130652
H         0.72051265114454    1.99486738058918    1.90209295892632
H         3.19816397070963    2.45970753534699    1.23883407298787
H         3.86144739846482    0.41409501063126    0.17870778429953
H         2.31211121354273    0.96658517417020   -0.23236182430512
H         3.29898759198798   -0.21859946450747    3.96471914843769
H         4.97570407170846    0.09136451284886    3.99992083330278
H         6.55189327165307    1.62410393560270    4.10411721032082
H         6.55993223955486    3.25153639282551    3.32749005216241
H         7.28413615942510    0.57278396605858    2.02103419045495
H         8.45066846724172    1.69374670883758    2.61837327794846
H         8.14799934353647    2.92663191821589    0.70553449025493
H         6.52807083831872    2.72262714384527    0.57140381402902
