39
 energy: -54.519792107494 gnorm: 0.104774371702 xtb: 6.4.1 (79825abcba525fcdf90b791dcacef51065a7a4e7)
C         3.41897654835836   -1.23858534308793    0.11536369951107
C         2.41482206463684   -0.39475256433649    0.90729817125821
C         1.01221818308723   -0.91966325495018    0.56455033363079
O        -0.06702720921023   -0.32877278845233    1.28197375193993
C        -0.27935142260223   -0.90928990856873    2.55293951771617
C         0.81769448986578   -0.62941306314953    3.56291170475415
N         1.08620157663206   -1.32765521145318    4.61857977762349
O         1.56033044825275    0.47846759973986    3.49305706383409
C         1.39545161711447    1.62246954919087    2.63365446234250
C         2.61282183165426    1.96525239528916    1.75738007763418
C         2.58128380257555    1.08314019850324    0.48451568382363
C         3.95482222503599    1.93079927730901    2.53749580359466
N         3.92911650021802    2.67825237188271    3.69217418085524
N         4.93550948580876    1.21286309169928    2.10508370270822
C         6.15744692229611    1.13042692938082    2.91905411639295
C         7.28631966022082    0.54809012024916    2.05278238299977
N         7.75425893060691    1.48223497635920    1.02638189016192
H         3.22756794628061   -2.31544596701959    0.15904319252768
H         4.48492071701635   -1.06987340809734    0.30319916313274
H         3.28653911843563   -0.97228505704787   -0.93128873862136
H         2.68883386600414   -0.50270742112577    1.96963559554389
H         0.99675115223581   -2.00503463250114    0.63360037404786
H         0.75310999845229   -0.65617726985051   -0.46872050281081
H        -0.64280368052106   -1.94276917794589    2.60290786096745
H        -1.18865695740082   -0.44494906792316    2.93566984306934
H         0.57287516101491   -2.21404468412968    4.73895151028483
H         1.27217421520926    2.42347224186893    3.37684600402042
H         0.43102696650431    1.66139274188131    2.12452885303568
H         2.44580527489359    2.99450195528701    1.39225459407916
H         3.49385055343341    1.24229174037962   -0.10617370224806
H         1.73431046151722    1.40590987355922   -0.13858123501182
H         3.02132218625350    3.00188626662480    4.02435970839497
H         4.62909666521251    2.71764472809752    4.42288308589162
H         6.13292290394581    0.54907776521935    3.84860657158839
H         6.45344338735654    2.12613355545373    3.27117870346342
H         6.85616205308434   -0.40514913026152    1.72581770637777
H         8.17534160926497    0.37258439914085    2.66706262992201
H         7.81753823480725    2.35139202508830    1.56204654849774
H         7.18348661244689    1.61240783464110    0.19470213023877
