39
 energy: -54.524234859409 gnorm: 0.120343350308 xtb: 6.4.1 (79825abcba525fcdf90b791dcacef51065a7a4e7)
C         3.13479004511593   -0.38115105531019   -0.97087747107200
C         2.28983277025700   -0.05315828155131    0.26443953846897
C         0.84843699277705   -0.58474470950400    0.25448823503972
O         0.23000687076364   -0.24971359473368    1.49300220597111
C         0.65162441779049   -1.04752234835728    2.58074092261959
C         1.88216592833980   -0.56793213156479    3.32749752149824
N         2.71671062070622   -1.40966536662412    3.84623980529048
O         2.16464547150585    0.69579970405325    3.65456718043090
C         1.61348938221844    1.77347835989712    2.87396868425513
C         2.49230658052734    2.17698291802098    1.67721828751119
C         2.15874602637644    1.48597130173292    0.33165498056634
C         3.93196097607696    1.82697472699321    2.14156954689822
N         4.42551154182711    2.65605297692299    3.12221532407687
N         4.53894770090581    0.83991955318808    1.57460459028324
C         5.83789272430833    0.29557852126336    1.99758129233898
C         5.84402804126934   -0.00501830794029    3.50539441744776
N         6.20169224610927    1.14360035488110    4.34076452810746
H         3.47286663713266   -1.41746238934659   -1.07056189509132
H         4.02742642392828    0.25269660480048   -1.00856411586094
H         2.51045420682525   -0.23267814862137   -1.84956819771438
H         2.68738989081502   -0.44375447077275    1.21558645800078
H         0.74871748356591   -1.65014017294967    0.05948391729111
H         0.22369584449709    0.01378836896420   -0.42054301224822
H         0.70202871274089   -2.10614363004374    2.29886476075342
H        -0.29879337105911   -1.03929245603782    3.11512820191324
H         2.58244923708689   -2.40398316146351    3.60752310056866
H         1.63593512693724    2.57892057794244    3.62223021408418
H         0.57563490093996    1.52789475574855    2.64291549296945
H         2.36738470347337    3.25707581480076    1.48136210311832
H         2.91268655315962    1.94030633082238   -0.32574489778778
H         1.18531108208079    1.86861190858383   -0.00864553102115
H         3.65962225499932    3.29075143535614    3.34525816576751
H         5.17617625647960    2.32311765251740    3.71476578642984
H         6.65771717301166    0.99366571098646    1.78973956426741
H         6.01206163133007   -0.59123731119678    1.37608295682501
H         6.52629880545224   -0.85906065067202    3.58105690311627
H         4.84164051442992   -0.34437613921196    3.78567643339286
H         6.98716491841677    1.58324880041657    3.85484602065428
H         6.46751519135667    0.86449694912760    5.28196412715428
