39
 energy: -54.515972412932 gnorm: 0.126963277456 xtb: 6.4.1 (79825abcba525fcdf90b791dcacef51065a7a4e7)
C         3.26617924804882   -2.19914894304121    0.93091505149950
C         2.30103312784436   -1.04437768747232    1.21820668919283
C         0.92449217696160   -1.18113289037292    0.54982209529332
O         0.20139105257124    0.03705991076788    0.69729949638486
C        -0.59786129145127    0.14005856709540    1.85834327664960
C         0.15301566698494    0.04292516449168    3.17311836730118
N        -0.29487934796720   -0.57314211240118    4.21902678928989
O         1.29652900776523    0.67951509638070    3.43942257661835
C         1.73400779626316    1.77541960802203    2.61352672392413
C         3.07986601399203    1.44023866304455    1.94744376793419
C         2.97143766461030    0.31047555079762    0.89331905643155
C         4.22590714515967    1.27584451483259    2.98199530697798
N         4.10271257239559    1.36301651833981    4.34942105530865
N         5.32013807087034    1.27094217776765    2.29877152314656
C         6.72525043480061    1.16884637878889    2.72032855055033
C         7.48925240383705    2.25403730639560    1.94408234770633
N         7.47244920734513    2.13488163311366    0.48442097636846
H         2.74634124246308   -3.13366179737288    1.16464165407051
H         4.08300899879573   -1.87651360366405    1.58565045349754
H         3.54145040328768   -2.20844012773085   -0.12173698077363
H         2.14615993186697   -1.05292217801617    2.30964555466152
H         0.43256329074843   -2.05797785379278    0.96477635935051
H         1.06868882682235   -1.36418651783021   -0.52251611017513
H        -1.34424174471022   -0.66272998416181    1.89181801679513
H        -1.11004627621376    1.09864455676516    1.94615513935118
H        -1.12002872693944   -1.17821863773509    4.08983481016188
H         1.89095740050687    2.56710224243275    3.36034780147277
H         0.88344537404534    1.96024435967249    1.95533055755581
H         3.18299386748424    2.30392974169537    1.26629168009785
H         3.97289998576733    0.16594999125174    0.46529241033475
H         2.47402665067968    0.72300987390737    0.00326760701556
H         3.30570532072268    0.83170888498041    4.69823085785086
H         4.92334429097358    1.21878420508860    4.92493831397347
H         7.10236763529022    0.17650079707352    2.44524873143576
H         6.96529634732449    1.23933717797345    3.78824536095996
H         8.52794701494197    2.13676446748044    2.27266585317046
H         7.17631937788610    3.28243728855770    2.15137175971973
H         6.56416601725771    2.42105204079750    0.11091995220911
H         7.55932961553424    1.16316139862430    0.19696869213306
