39
 energy: -54.530238095777 gnorm: 0.103474380804 xtb: 6.4.1 (79825abcba525fcdf90b791dcacef51065a7a4e7)
C         3.43919910506554   -1.78951645688112    0.80140029740695
C         2.38846504298268   -0.75959717795647    1.22890982463680
C         1.04281194006292   -1.21401694164583    0.64322615395085
O         0.03823729762946   -0.26290279520735    0.98209219013300
C        -0.52632952833927   -0.32950634969320    2.27602570791300
C         0.45224920167299    0.04114219298134    3.37461022378162
N         0.51725453162458   -0.57688292588116    4.50946373794244
O         1.08101386892432    1.21945201003944    3.37993626811006
C         1.43748438320525    2.06572746951123    2.27032150192704
C         2.83727480558537    1.79661730771773    1.69108616314191
C         2.79669501372348    0.62601575080467    0.67750557455708
C         3.99110538196982    1.45753971326329    2.67314215875757
N         3.64874213260019    1.09961183494777    3.95661559709754
N         5.15519154700957    1.48195835701186    2.11774392214436
C         6.39842258222407    1.21823546791347    2.85754218101917
C         7.58065412175783    1.90629187134233    2.15554254042923
N         7.96277754743398    1.43708628799068    0.82178111231163
H         3.41036789877199   -2.73382746071523    1.35422888028579
H         4.47916866158084   -1.45041168269400    0.86017206678336
H         3.20652539868672   -2.03245260384722   -0.23338558151056
H         2.31189040562570   -0.70720786372431    2.32740388605302
H         0.83982612960146   -2.23890096287828    0.94562930641678
H         1.07063798524390   -1.24612751743764   -0.45331621071358
H        -0.85906813465370   -1.34699145064974    2.51410736978923
H        -1.40990590731023    0.30574194859879    2.20758702218341
H        -0.09168451206693   -1.40438835881812    4.41942116164477
H         1.43441697041579    3.12630954502555    2.56065326790116
H         0.68503835842373    1.98546116274761    1.48405112492001
H         3.13381924490978    2.71848424417183    1.15930750923158
H         3.77893567367318    0.57739211565301    0.18775026119931
H         2.07040895019562    0.86355809649275   -0.11361771657261
H         2.69037262754904    0.90639628476068    4.24535815677495
H         4.29556364785438    0.65517764978713    4.59658408568685
H         6.52444206219356    0.13478741258969    2.74398405966237
H         6.53273613878219    1.53217303895256    3.89986668748420
H         8.42515611924097    1.73995951794527    2.83359597284458
H         7.42928999925225    2.97879226043507    1.99637495717017
H         7.17939881398202    1.48788587297199    0.16595184172342
H         8.26123499850322    0.47228393297386    0.70137845659219
