39
 energy: -54.521310807249 gnorm: 0.105716079923 xtb: 6.4.1 (79825abcba525fcdf90b791dcacef51065a7a4e7)
C         3.60593457898339   -1.27547898436516    0.23966621144914
C         2.42701629277819   -0.46241312866165    0.78429065208460
C         1.07479832085484   -0.97235803989982    0.26297720478814
O         0.04558138493223   -0.28711128871884    0.96991985780422
C        -0.23042541886830   -0.60915474658235    2.31808303050233
C         0.67996334226501   -0.24100396880122    3.47460451199947
N         0.93531036636779   -1.05904746130776    4.44397337608158
O         1.25992664210177    0.95671984943611    3.58812827397970
C         1.39245696361446    1.99666090061308    2.60047618090145
C         2.66584570736664    1.95660119006644    1.73779232152127
C         2.55187860039255    1.04979117681233    0.48718949202622
C         3.98386043460470    1.73722616182183    2.52864274856649
N         4.01273370842642    1.18731848994741    3.78935561866209
N         5.01751912490092    2.17301460444706    1.89161980047949
C         6.44123551732637    2.29737870756235    2.23808745425633
C         7.27501098957527    1.02882470094453    1.99419052438758
N         6.85760056868878   -0.16960654584542    2.72536958994547
H         3.47630274998722   -2.27770292504538    0.66028090209295
H         4.57527623051137   -0.95967008150346    0.64044588906690
H         3.70322527993273   -1.12007887537747   -0.83286451840748
H         2.48685535232471   -0.58507344774921    1.87821535593839
H         1.00549755506521   -2.04970044790523    0.39552495627880
H         0.92495816493987   -0.79881968109287   -0.81016905863932
H        -0.39654293943785   -1.67831065080907    2.49692490871581
H        -1.16455188569310   -0.10307562053884    2.56348707098177
H         0.40466546157627   -1.93037475090130    4.29269744690009
H         1.54977431602063    2.86936624429546    3.25068609801001
H         0.45658935986525    2.08748349252537    2.04663333231909
H         2.77162290017853    2.94416185828588    1.25395254198881
H         3.49606729627422    1.26764019824161   -0.03056600435134
H         1.64335657413758    1.29100699465128   -0.08394668539092
H         3.16595204962151    0.77975591778657    4.18436220821582
H         4.79879445371523    1.02749937852353    4.40743801260588
H         6.57258645825621    2.57876148109144    3.28985107048986
H         6.81520543555984    3.03800911147622    1.52069605282522
H         8.26465127158925    1.40307430192498    2.27906923813735
H         7.26427234732815    0.73997807494069    0.93827631866017
H         6.87376140831620   -0.01777255445850    3.73683394260919
H         7.49012200665220   -0.91223163029418    2.43754698890032
