39
 energy: -54.526592933263 gnorm: 0.106681334761 xtb: 6.4.1 (79825abcba525fcdf90b791dcacef51065a7a4e7)
C         3.23125568180394   -1.72683127253726    0.03657941604900
C         2.40061928063114   -0.72892539691891    0.85007016190300
C         0.93755203841925   -1.08424018158022    0.54430787321206
O        -0.05226496372880   -0.24856421771636    1.13636064745965
C        -0.32861705020292   -0.54361690267539    2.49061656211585
C         0.72728487108427   -0.37599708507848    3.56711982269953
N         0.78858444684529   -1.09976822746881    4.63785363530445
O         1.58847570701356    0.64485228189462    3.56918616591274
C         1.61424953080218    1.76199640720199    2.66043812719335
C         2.77603339566379    1.76354552306658    1.65167506793240
C         2.66228082205946    0.75063962194949    0.48532080757042
C         4.17133536114430    1.63535844272613    2.32057944880991
N         4.34619360909875    0.50385236550362    3.08330327312745
N         4.97549882354309    2.64340364811550    2.28416431865415
C         6.18999974960131    2.55331628109064    3.10838905348886
C         7.14613391496862    1.43282781863246    2.66769688349518
N         7.43354239298939    1.27867819368931    1.23985725694237
H         3.29711586148495   -2.63896951082955    0.63811097864226
H         4.26769496838573   -1.37641327532498   -0.01804361893219
H         2.82475212497552   -1.90333701034792   -0.95716975497518
H         2.61209965293014   -0.95474442683325    1.90817191371137
H         0.68795177152717   -2.10531236209259    0.82386012860707
H         0.69734355056439   -0.86395919655657   -0.50354073127934
H        -0.90549021802403   -1.47093062893001    2.59051832153762
H        -1.03905816029687    0.25428877690041    2.70867944560124
H         0.16810811630675   -1.92183809148416    4.58409567486347
H         1.70747655162834    2.65040513461387    3.30166736111119
H         0.72550561533280    1.86078299607090    2.03496689566959
H         2.78905333651700    2.75146124761967    1.15728778155870
H         3.62652392504554    0.74613107935899   -0.04121137669613
H         1.97472950976856    1.06567488446391   -0.31331541833986
H         3.55576559224636    0.10128212422838    3.58563521922663
H         5.07554956187594    0.53166443723381    3.78524763126121
H         6.14300148803976    2.44427418426071    4.19858950454362
H         6.68451377705234    3.52636971340780    3.00040658875280
H         6.70039923449132    0.47225111718026    2.94915652266937
H         8.06055959243551    1.49505334751880    3.26640897378061
H         7.50133454656041    2.21061949667409    0.82360672857932
H         6.59648723187694    0.83657645510077    0.86796756136697
