39
 energy: -54.517675984483 gnorm: 0.105845271098 xtb: 6.4.1 (79825abcba525fcdf90b791dcacef51065a7a4e7)
C         2.87714469699870   -1.46134004543159   -0.27145397036468
C         2.11690312799495   -0.49509975657304    0.64285048869068
C         0.62457762372451   -0.64891160188760    0.31177427320944
O        -0.19878172323674    0.06262826084467    1.23069153308931
C        -0.29094286505027   -0.52659239467679    2.51200375993168
C         0.89785708059721   -0.48422872258750    3.45372803898882
N         1.20728800946354   -1.46830079271840    4.23470684812662
O         1.71920095715878    0.56861918478262    3.48005148561306
C         1.67437134030578    1.80882790205672    2.74904466579449
C         2.76450624585379    1.88483515824249    1.66591221952623
C         2.51525857126642    0.98375632117764    0.43090904268975
C         4.17140479628345    1.80135948046005    2.31737280975827
N         4.34282854405560    1.59459972393526    3.66662940473056
N         5.11075033879185    2.03093902743827    1.46350906890632
C         6.53623887466487    1.94561094458157    1.81447374582589
C         6.94182250947399    0.63051745291465    2.49998636393271
N         7.36074474011740    0.79075799841676    3.89423127568616
H         2.68250927885676   -2.51186604739880   -0.03336548896615
H         3.95035311677682   -1.24933168327173   -0.21436639513879
H         2.66573005602826   -1.15930954661324   -1.29518160368326
H         2.43456635733676   -0.86707494730684    1.63078876811228
H         0.31864598417898   -1.68642122487009    0.19767880228643
H         0.36625542891543   -0.27527972090574   -0.68716486179360
H        -0.64589842134074   -1.53757550721897    2.27835127446601
H        -1.06901528120605    0.06327326463212    2.99738329598254
H         0.55779317120831   -2.22259839383662    3.96476009118488
H         1.90622047179899    2.58072865779202    3.49707641494708
H         0.63690618649808    1.98346543056214    2.45920574918349
H         2.75496438528408    2.87721153348403    1.18045995908787
H         3.43023988387920    1.12675847470886   -0.16017540017614
H         1.70745550574004    1.46366726670225   -0.14087200092142
H         3.55038561955169    1.22142864419937    4.18812167993554
H         5.13723226174887    1.77883924839013    4.26699430975864
H         6.90236510200307    2.75303471642897    2.45996153324631
H         7.09223419154910    2.12356412195746    0.88590538858016
H         7.79048060037609    0.14670976250624    2.00368393999639
H         6.17561033565884   -0.14402670150913    2.39273544059380
H         7.97252447272411    1.60701646855633    3.97053684305235
H         7.92278150728839    0.02155669971164    4.25040717258696
