39
 energy: -54.526512198301 gnorm: 0.119556880550 xtb: 6.4.1 (79825abcba525fcdf90b791dcacef51065a7a4e7)
C         3.45870130939918   -1.63888874132176    0.45458947866410
C         2.46031017554385   -0.70191199596685    1.14221576593911
C         1.07699707498336   -1.05183980423995    0.57274202224286
O        -0.00489790845390   -0.18876327678354    0.90922481822589
C        -0.57181916331675   -0.44612488064991    2.17800414645005
C         0.39600602816433   -0.44796659866891    3.34642001321296
N         0.26890612517088   -1.26680381264746    4.34011236378876
O         1.30687575038523    0.48010912606806    3.65101682885859
C         1.49768024515782    1.62096664021134    2.79280001124277
C         2.81944893678468    1.78293451993182    2.02205943272144
C         2.89318816879974    0.75622495087253    0.86459223159244
C         4.09648003793579    1.71543015279074    2.90260889199782
N         4.11518697513564    0.99323735387818    4.07338499233487
N         5.15764320968868    2.20566181948504    2.35692973977865
C         6.54549723063572    2.05025054689508    2.81756321965347
C         7.22426464749935    1.18574230344449    1.74248330309444
N         7.51159733491131    1.86400034124572    0.47658531903341
H         3.15645142084389   -2.68884238642673    0.52104473761241
H         4.42702933796821   -1.60437929456176    0.96560100191345
H         3.71098138507147   -1.28346403847331   -0.54238839636965
H         2.49193239154912   -0.79923442723503    2.23986138175566
H         0.82988393421306   -2.07581639187694    0.84374978120799
H         1.03973491749985   -0.99383874092485   -0.52245565088393
H        -1.04618444513449   -1.43402608890248    2.21926644422758
H        -1.33456788787015    0.32362392227903    2.29896959421108
H        -0.37574141300345   -2.06477466130497    4.23356781370617
H         1.56287165364023    2.47543780626921    3.48183223574020
H         0.62269783812424    1.73818039611102    2.15131303643339
H         2.73976656731520    2.75139650587557    1.49641895923548
H         3.90517433109942    0.82317271661309    0.44219048178028
H         2.30944665347839    1.08967593698028   -0.00595366336187
H         3.18481422106003    0.86115993209535    4.46852893255123
H         4.97664464467898    0.68767571750090    4.50925454398624
H         6.59309420725549    1.60458682427192    3.81844004463858
H         7.08288386624602    3.00132385369978    2.71901126391555
H         6.59954244633306    0.34046995353965    1.43289751291868
H         8.15040816032295    0.78486463795601    2.16681548073928
H         8.02858387953989    2.72294123640841    0.67985932807564
H         6.64351725986919    2.06682324477563   -0.01302379957100
