39
 energy: -54.524560597987 gnorm: 0.114165220923 xtb: 6.4.1 (79825abcba525fcdf90b791dcacef51065a7a4e7)
C         3.61054571640789   -1.40965523480355    0.22564797205220
C         2.54457422215518   -0.63315216446081    1.00557612869207
C         1.16728925176468   -1.11347117055920    0.52320209171664
O         0.05078302025981   -0.43974792036685    1.09602783639329
C        -0.14770471924832   -0.68096068954371    2.47438000359897
C         0.89757215051666   -0.29549889240529    3.50428295393359
N         1.33865197622447   -1.20579063728299    4.31106097214450
O         1.22635171433388    0.98022420110239    3.72387803140233
C         1.25254012111565    1.89631534868489    2.61275720094970
C         2.56146097925788    1.90390477625316    1.80404484184386
C         2.64193134026269    0.86936364246930    0.65402333545500
C         3.79674257226272    1.75263686706480    2.73244670172758
N         3.95010844823531    2.24626671934557    4.00737318273229
N         4.78947686175556    1.26274530415592    2.07014390087795
C         6.05638909258094    1.18579163182256    2.81276507185776
C         7.09421542139538    0.64338771051048    1.81646640121998
N         7.61561190290838    1.79215990811980    1.07245034226253
H         3.58140739433302   -2.48492117409198    0.42844853359953
H         4.59767774217615   -0.98916715340456    0.44642610397651
H         3.48226097046618   -1.25366642724349   -0.84353272004223
H         2.55163093326553   -0.81110572335181    2.09350087049982
H         0.94739832211042   -2.17409270881556    0.62203574682081
H         1.07158565183478   -1.04364497904957   -0.56774962894985
H        -0.39887882616764   -1.74594042378921    2.54788866262472
H        -1.04842574102879   -0.09671022927924    2.66486495722136
H         0.79487703884904   -2.07884467150821    4.23513248015369
H         1.08295724526453    2.87347025933307    3.08767426040446
H         0.34963455421529    1.73024473303839    2.02282424068758
H         2.53373806657784    2.90910421816614    1.34647373335662
H         3.59728395630027    0.96395088468727    0.11981751041836
H         1.86393788448776    1.08759238486675   -0.09223148645130
H         3.09284646416145    2.28751430145040    4.55744332914562
H         4.65601578708862    1.83429471883279    4.60523052180459
H         5.93108055262086    0.60678591275012    3.73563353430600
H         6.35098259139532    2.19753086962504    3.11712622143417
H         6.61450619780846   -0.14856695258545    1.23055394185451
H         7.89156253014565    0.10442941540648    2.33825568062775
H         7.95465432223485    2.50434309702500    1.72377224069501
H         6.92144879879932    2.13023163095888    0.41043649682572
