39
 energy: -54.531507990423 gnorm: 0.110498338351 xtb: 6.4.1 (79825abcba525fcdf90b791dcacef51065a7a4e7)
C         3.47794158779202   -0.70453522788272   -0.52237038269784
C         2.54502458105275   -0.18099474970906    0.57449396330086
C         1.22128412430327   -0.95943043787430    0.61981521997100
O         0.15521394361851   -0.32023395800357    1.31518615482676
C         0.01890480591895   -0.56321423932501    2.70076043048832
C         1.23495353810545   -0.32759266930413    3.57688402595275
N         2.04697745816497   -1.18596163721357    4.10403969307662
O         1.64405466866447    0.93994144041925    3.67578269184375
C         1.37806942309882    1.99884950147281    2.73638720375401
C         2.51420745972054    2.14052139247737    1.70854162964726
C         2.27508835989924    1.33239125201133    0.40890781664585
C         3.94872853711374    1.81591295452619    2.20604664775313
N         4.28798973154452    1.93757956242640    3.53372436745085
N         4.76379665651646    1.45498959796155    1.27354550388436
C         6.17581875845691    1.24704870694812    1.62770482185222
C         6.38859756086373   -0.00928185032826    2.48808569215026
N         6.39944645389746    0.40586245826125    3.89258889602161
H         3.80002686380651   -1.75062147591527   -0.51059828114483
H         4.37647161512756   -0.07854620647879   -0.55001780069464
H         2.97433434712248   -0.50553988818723   -1.46614866084243
H         3.10659733021165   -0.34344383414457    1.50912964201022
H         1.25344904554415   -1.93671167107751    1.09618163812621
H         0.89599603226969   -1.03451340253358   -0.42553674772584
H        -0.36090890909025   -1.57935447846186    2.86161544978642
H        -0.75103993214992    0.10659477887543    3.08478184712215
H         1.60531294390353   -2.11123200603431    3.99229504652601
H         1.27259274910876    2.82174305765789    3.45809154056790
H         0.41923863577873    1.89548986213980    2.22570226089026
H         2.48231997302773    3.22812425937565    1.51705014481853
H         3.07320006156872    1.71437049195662   -0.24234544409756
H         1.27182687919314    1.61305576445412    0.05607967619965
H         3.50897713248735    2.00412493997073    4.18785563623703
H         5.08314424714016    1.36956030771830    3.79932354532474
H         6.51643437324816    2.09516080539288    2.23377653291497
H         6.73030645932501    1.23872237996971    0.68139019082066
H         7.35023468960056   -0.45573511562609    2.21142697069853
H         5.52386682594685   -0.67715337640677    2.41959565597555
H         7.17269471818938    1.06930588307842    3.98371965616910
H         6.60332169534829   -0.42233083109276    4.44661777392890
