39
 energy: -54.527855737507 gnorm: 0.107946643783 xtb: 6.4.1 (79825abcba525fcdf90b791dcacef51065a7a4e7)
C         2.59782157793989   -2.75383082576171    0.47478785460885
C         2.12519678742272   -1.41821863311174    1.05814541421669
C         0.62088914264866   -1.30812574691083    0.76618138942451
O        -0.11653303833588   -0.17780461673626    1.22137494278276
C        -0.35040323306806    0.07957951934074    2.59122669124114
C         0.78298332013355    0.59313489621672    3.45931678763144
N         0.91835827620588    0.32251313430437    4.71729561616310
O         1.48320835578203    1.67846699740405    3.11942481983046
C         1.84182946244291    1.82761221401990    1.73246954537730
C         3.10451530341282    1.06786451213440    1.29002748510718
C         2.82987634374198   -0.19244670182317    0.43242071773394
C         4.17455617516841    0.90435913154823    2.40313624586912
N         3.85364148108512    0.30479844722829    3.59903331059050
N         5.32689917405100    1.28945170202335    1.96958184775496
C         6.46438468642758    1.33894765421611    2.90025446027796
C         7.11124074730235    2.72928596794349    2.78875045144650
N         7.95035730095302    2.96313297526057    1.61134197064784
H         2.01031113699506   -3.59282074925212    0.86092427887104
H         3.65783197936223   -2.92202491898488    0.69404008269836
H         2.46720175900394   -2.72879680474962   -0.60514204863717
H         2.44471540926543   -1.48320052054337    2.11122789393870
H         0.10090614382536   -2.19693526956648    1.11642911038189
H         0.50505005723947   -1.27575012554497   -0.32457232016824
H        -0.87381152809701   -0.74950140698304    3.08249277049736
H        -1.12189662615259    0.84769532850381    2.53017324131753
H         0.20187552889869   -0.35258608131315    5.02482315624797
H         2.22025741355488    2.85998285993370    1.74427775747839
H         0.97105113250994    1.69979227626054    1.08729827567241
H         3.51160406140309    1.78732789412491    0.55707660736330
H         3.80155945729977   -0.56773792720236    0.08312192486075
H         2.32128670005730    0.13483662492725   -0.48628274762448
H         2.90770795099690    0.45712011781662    3.94714895150814
H         4.59431867865645    0.37372466771866    4.28613298822722
H         7.24898544521369    0.59763068298908    2.70663926845512
H         6.29495332992888    1.12124047711950    3.96182589668462
H         7.72003428588124    2.90550256282007    3.68257631497643
H         6.27931491330852    3.43918516464822    2.73930307180972
H         7.40402118191653    2.96010439289601    0.74653994483329
H         8.66869570778160    2.25517993870922    1.48015635078468
