39
 energy: -54.531427594980 gnorm: 0.119950794337 xtb: 6.4.1 (79825abcba525fcdf90b791dcacef51065a7a4e7)
C         3.13551395864641   -2.16706159303315    0.51874526618513
C         2.37006060176392   -0.96339903715309    1.07804641514431
C         0.91602457899260   -1.23912924793212    0.66566668536221
O        -0.01697032969620   -0.22117014718216    1.01480603486909
C        -0.50069891429071   -0.20542173115850    2.34265931112594
C         0.50413042811350    0.24971281967274    3.38431911373204
N         1.03595967935442   -0.43352269623103    4.34578680639279
O         1.13745399586831    1.42557433758635    3.39051237179359
C         1.59785795525006    2.06468232009228    2.18466516416683
C         2.90826814785569    1.56596916570755    1.55105851580307
C         2.77391805567813    0.41991137994780    0.51771351918312
C         4.02296837333448    1.26793539634945    2.58997711218324
N         3.76114174997125    0.45706215568268    3.67005138341869
N         5.19793263618839    1.72202133002782    2.31172360441362
C         6.35246627409108    1.54157981618895    3.20445401220904
C         7.54579047654543    2.15029729363723    2.44990983812088
N         7.77602832737254    1.79719355913953    1.04726946121932
H         2.60498877518070   -3.07137876876912    0.83327256977486
H         4.21876048830226   -2.14187814787961    0.67975952757126
H         3.07656736945399   -2.23617816904721   -0.56554483890953
H         2.42040468653793   -1.00417252697186    2.17854652879625
H         0.58273330354483   -2.17557949073377    1.10727287823642
H         0.86411341188571   -1.31417320079054   -0.42789820467470
H        -0.84470598421202   -1.19862015442289    2.65553279062553
H        -1.29236475113278    0.54353190864216    2.30709073567757
H         0.53554337268753   -1.32108964926189    4.50543670172700
H         1.70482991352429    3.10647512745185    2.51986813432905
H         0.88335127420101    2.05754106810116    1.35988154847729
H         3.27737943033184    2.44584628890202    0.99415735808031
H         3.72894993063281    0.36902561004496   -0.02297676150161
H         1.94564580741581    0.73125634471416   -0.13560360062799
H         2.80606059863697    0.39627911321725    4.02119528867380
H         4.38382729412228    0.38318532890390    4.46520194503621
H         6.56313620403324    0.46717776052430    3.26701957176417
H         6.11906119771764    2.01685114899324    4.16501454977560
H         8.47935208595850    1.77238600338199    2.88147942970739
H         7.52772319328415    3.24453759651200    2.47844467484686
H         6.95060481805268    2.12982158873863    0.54287923983984
H         7.78778942315079    0.78073022537796    1.01438780195080
