39
 energy: -54.520203640127 gnorm: 0.118147320315 xtb: 6.4.1 (79825abcba525fcdf90b791dcacef51065a7a4e7)
C         3.22386762379808   -2.03884426575990    0.43742949150212
C         2.35108521445850   -0.95296471881001    1.07512586433416
C         0.89593272281121   -1.27200313648713    0.69955873062047
O        -0.06561769502402   -0.28561256283495    1.06159871653781
C        -0.41621906534205   -0.24658377291866    2.43017137299837
C         0.57704308288243    0.31464067457613    3.43034238124273
N         1.13718584564568   -0.30234768990743    4.42010936909949
O         1.07075965112476    1.54981509316226    3.31044439671524
C         1.42830862171184    2.04023874475236    2.00425079947939
C         2.83902275022222    1.59538832731298    1.58076425711116
C         2.78652994901290    0.43629556331690    0.55458258860370
C         3.98775470293667    1.23198671890614    2.56009402236002
N         3.72745511772318    0.63004384491977    3.76944838282052
N         5.14961596928590    1.49554813608445    2.06534773861759
C         6.28825880453816    1.15696126406080    2.93213842092338
C         7.54347442728351    1.98413097362626    2.60946126396540
N         7.82403336741598    2.03326972083429    1.17281105931822
H         3.10104769175904   -3.04852241264721    0.84195298505203
H         4.27479855277456   -1.83693158649388    0.67143441048196
H         3.09138196692690   -2.04632527473549   -0.64253737138717
H         2.47838851699668   -0.82582860775453    2.16275070774061
H         0.61803059223237   -2.18868370304163    1.21483080378861
H         0.75010290593033   -1.28304123755318   -0.38801763920250
H        -0.77175154749272   -1.25349262337997    2.67998131882653
H        -1.25050113679725    0.45047887646563    2.51388855002122
H         0.80413676041200   -1.22862646811280    4.72794957584095
H         1.35486647977662    3.12331453290348    2.17943462950337
H         0.72797536497570    1.73041073578836    1.22683279744437
H         3.17696196416664    2.42717150809959    0.93694778957413
H         3.85412840029933    0.33349114362697    0.31649427099856
H         2.30707570557718    0.81617377496293   -0.35953449592915
H         2.82610720800079    0.89793526370503    4.16312690244292
H         4.45729931772069    0.69544430698286    4.46838309129836
H         6.47658329917313    0.07837375713107    2.87034097060020
H         6.22469717075800    1.20675108904969    4.02599316906776
H         8.34167885895590    1.45898480790746    3.14583587764954
H         7.27800130034405    3.00889005087797    2.88855866509975
H         6.91404399858559    2.35369749369306    0.83278126187553
H         7.87868653038191    1.08270088045644    0.81525106762600
