39
 energy: -54.527022708634 gnorm: 0.109295303556 xtb: 6.4.1 (79825abcba525fcdf90b791dcacef51065a7a4e7)
C         3.89799392047257   -1.17534127218899    0.26451163000710
C         2.76373822410292   -0.42142304433662    0.96637448939068
C         1.40196219925269   -1.08728845919242    0.71638604142244
O         0.20894895066344   -0.34842617018687    0.96014905432675
C        -0.38507909032416   -0.57485685497576    2.22240714781740
C         0.54953396701688   -0.38591911425490    3.40252813052367
N         0.61740751639530   -1.26520901620067    4.34926762327714
O         1.26644831895945    0.71332636310236    3.65048087563198
C         1.38508925231237    1.87945517319357    2.81348253884657
C         2.68262805521682    1.97260200655759    1.99185989680685
C         2.70797268290143    1.10242900114255    0.71066635995511
C         4.01714974636875    1.66251718412676    2.72236097292119
N         4.03252427179517    0.69722296814177    3.70246286737644
N         5.02374947896750    2.40130782661791    2.39816129686457
C         6.36024728356808    2.06711253394193    2.91251697777687
C         7.02262452545694    0.94333389355904    2.09871449288908
N         6.58012573573942    1.04736112128816    0.70642684268845
H         3.77119014009016   -2.26118181503212    0.31969371785165
H         4.82658893900883   -0.81779264673691    0.72260890588640
H         3.94935396362508   -1.15905179246619   -0.82224208009721
H         2.95026276602967   -0.60529905834960    2.03721327824697
H         1.31784224633583   -2.01752214322118    1.27372550599337
H         1.33368419798192   -1.28792829224214   -0.36031832738268
H        -0.73366917373892   -1.61442666092839    2.20111513186468
H        -1.25027896228918    0.08188675524224    2.31753059814688
H         0.05777381967547   -2.09599686451027    4.10374504211829
H         1.28280539892309    2.70011885929577    3.53817929845424
H         0.60433368574914    1.81405444706740    2.05388903368754
H         2.78618806685979    3.01282889146042    1.63441181109309
H         3.45442074196298    1.39304914624110   -0.04124882009204
H         1.71860681951275    1.27024428480600    0.26034748619771
H         3.14550567776701    0.39523831489918    4.10393504545727
H         4.73124827457589    0.75114537262440    4.43344620013970
H         6.40339321856493    1.70925698031942    3.94823598997366
H         6.92338593140014    3.00524497487204    2.83622999635153
H         6.69256291523184   -0.02440563099592    2.49260036373116
H         8.09664387974978    1.08957406805820    2.25233331399446
H         7.17664236972871    0.43799470769138    0.14143538196621
H         6.64383235367385    1.98467780350236    0.31681660232376
