39
 energy: -54.512554336076 gnorm: 0.125589576339 xtb: 6.4.1 (79825abcba525fcdf90b791dcacef51065a7a4e7)
C         3.40208056914657    0.04801635216648   -1.12435010660159
C         2.71512516319777    0.13416287855852    0.24247511954489
C         1.53879460645558   -0.85380517087730    0.22078478987435
O         0.67061763111104   -0.71275077496410    1.34104854588888
C         0.93444581677470   -1.31018410853461    2.59440552960303
C         1.73743845562631   -0.59458250475223    3.66445304995297
N         2.32618988873621   -1.27106891834116    4.59708967883083
O         1.83898059211702    0.72786436209025    3.82133143044813
C         1.20363601186979    1.70320086321602    2.97306598851058
C         2.17128793778664    2.21745616099060    1.89300197037734
C         2.20900449968318    1.57503391569466    0.48404087190856
C         3.63387276942785    2.24489186582815    2.41341090141113
N         3.87278332015029    3.05405010613139    3.50006343149564
N         4.53328072262815    1.56633926054965    1.78508634118015
C         5.88376892774865    1.42283896590866    2.34905788991725
C         5.93451090796460    0.14689035586148    3.20537378224348
N         6.24625075276207   -1.19328950486106    2.70354917105004
H         3.37140593371761   -1.01017080150345   -1.40268975768723
H         4.39439636366212    0.50988625942943   -1.16871667589782
H         2.74511475231692    0.57529447123158   -1.81305217156788
H         3.38335898095843   -0.03420621198171    1.10294761111941
H         1.84362813925156   -1.89614138120753    0.16037048084940
H         0.90421695905478   -0.61464342900790   -0.64195699884870
H         1.49989999360724   -2.23425766815223    2.42404298478866
H        -0.05275916945851   -1.59100073427556    2.96250848335904
H         2.14668138664705   -2.27083374090437    4.41840935878788
H         1.00319418696394    2.55818586674329    3.63485144569101
H         0.32684624679183    1.27612853076420    2.48348685764518
H         1.89407015844381    3.26512245932280    1.67826629577919
H         2.84102720299515    2.19317965006146   -0.16823542875183
H         1.13141511520485    1.56805099594566    0.26370881514359
H         3.00213167058338    3.10031919366184    4.02826937484504
H         4.76423518319733    2.96440280088190    3.97201303601766
H         6.20506077749600    2.38904434991797    2.75631056252972
H         6.54547760342998    1.33641757978955    1.47859233261233
H         5.03237158278507   -0.04019071211356    3.79846048777070
H         6.59082176540120    0.25718342449668    4.07462288142330
H         7.14606126706552   -1.28291155901006    2.22534022756670
H         5.61183123338835   -1.57647108216514    2.00705725823782
