39
 energy: -54.519242522113 gnorm: 0.109453310219 xtb: 6.4.1 (79825abcba525fcdf90b791dcacef51065a7a4e7)
C         2.59625897957642   -2.59613099061490    0.76484596882024
C         2.00941924170193   -1.25698645811372    1.22294117343666
C         0.56484792526272   -1.16753808719621    0.70765714167790
O        -0.17952461057371   -0.00101447937193    1.04492663353728
C        -0.57335102189979    0.15318257738641    2.39346647451466
C         0.52344931119778    0.38019990944551    3.41688074726384
N         0.78239483629203   -0.47001258148912    4.35717813207013
O         1.30406464272447    1.45252541235280    3.26021191582796
C         1.79642324832830    1.89183289496279    1.97994231515725
C         3.07898127495501    1.20513956178609    1.47909878108855
C         2.93425794207771   -0.13018471002327    0.70756489228617
C         4.25027829581003    1.09312183276906    2.49213773871419
N         3.93057684204550    0.37277217775144    3.61975310381121
N         5.37407762266402    1.53051668631394    2.03396647947079
C         6.61211337577720    1.56510564444716    2.82677523548835
C         7.47175672816445    2.80169150148259    2.51731561836660
N         8.13516509155117    2.53108575196984    1.23991449994280
H         1.96424933840391   -3.47951721973357    0.90036914594732
H         3.56246489797292   -2.70818089418152    1.26870486790263
H         2.88821438278757   -2.49707496853580   -0.27865141251896
H         1.92926543410395   -1.24986651251519    2.32240567066215
H        -0.07220420391765   -1.97166237361545    1.06902520105110
H         0.49883890398850   -1.15745904245360   -0.38767465735322
H        -1.19555672333446   -0.66949133971515    2.76594664600662
H        -1.24482618265267    1.01223442975109    2.38438375084275
H         0.14267096736231   -1.25777930832257    4.54117980307351
H         2.14701760080038    2.90197860407840    2.23650720042336
H         0.99276147631901    2.02723058436079    1.25424677474622
H         3.54019647385763    1.85455556587334    0.71352370077479
H         3.95769561908824   -0.52946644057820    0.69450150149825
H         2.56774008119037   -0.03355168003864   -0.32496625712225
H         2.91401674998442    0.29714146213532    3.62764104442491
H         4.54505612919876    0.19937426594812    4.40576064898384
H         7.17855813581967    0.65028346592955    2.61493387798488
H         6.40899690789952    1.64739513493879    3.90148889808479
H         8.11139398671364    2.88512563011518    3.40304100412304
H         6.90123354224771    3.73417383344222    2.45830291881151
H         7.29654449859642    2.34922326695032    0.68312332732846
H         8.77997606667135    1.75111490648133    1.34131234313047
