39
 energy: -54.523401759878 gnorm: 0.115821795072 xtb: 6.4.1 (79825abcba525fcdf90b791dcacef51065a7a4e7)
C         2.94710904207324   -2.34475973173583    1.19073674010021
C         2.14257589992174   -1.05469781823948    1.38049147891117
C         0.69205268924324   -1.33860028536253    0.96134144167186
O        -0.18027264171033   -0.21311126998500    0.93065732748423
C        -0.70578796321595    0.21283710847752    2.17155914442815
C         0.34722852787995    0.39023821705423    3.24932059942349
N         0.46003916390989   -0.28302326573283    4.34844115460621
O         1.35839092960812    1.26056618236773    3.18713332584946
C         1.79154057835464    1.96936990403006    2.01049531809007
C         3.08969410324107    1.41472411282332    1.39852098943707
C         2.71381568155783    0.14661169956428    0.59235311243269
C         4.28451333018410    1.15264766435539    2.35479268993270
N         3.99663214758307    0.36514339550603    3.44547619487004
N         5.42370714933070    1.34772108526606    1.78177969951248
C         6.74628284996091    0.99038479827119    2.31617554864858
C         7.60889731035140    2.16997400344294    2.79404802977566
N         7.85621601205612    3.19700740484980    1.77958877138157
H         2.28832711645748   -3.06198182534594    1.69050948633204
H         3.97661726509239   -2.37721549430948    1.56362048467098
H         3.11403262403184   -2.77084241830299    0.20355545162555
H         2.18477214435831   -1.03962530588904    2.48198583120389
H         0.22690617687577   -2.07132467650024    1.61692656297483
H         0.65724841074412   -1.71687602579103   -0.06817624203883
H        -1.29113063055640   -0.67529915518204    2.43850808761586
H        -1.39377092270492    1.02942326959808    1.95065652897043
H        -0.33251630911758   -0.92870046291215    4.48495652652972
H         1.84486441707711    3.00100904736115    2.38734214556313
H         1.00040405283835    2.02578419083063    1.26098932060639
H         3.45349465571271    2.17216360566941    0.68123417432738
H         3.61138053688045   -0.25231868135814    0.10016095754828
H         1.98302709539736    0.39416394512206   -0.19152174790297
H         3.08116815097258    0.50916921072291    3.87016298993045
H         4.73040556050834    0.30362580916262    4.14063924492948
H         7.24028680226972    0.50177823033659    1.46773005354419
H         6.61907504597719    0.16123244776725    3.02283095537151
H         8.55126967671722    1.72544537472893    3.13306890051507
H         7.11889765121230    2.68313625113843    3.62775501633657
H         6.98813755713492    3.39341705342572    1.27536866470551
H         8.46606912060510    2.73869892037373    1.10694491763094
