39
 energy: -54.530815834978 gnorm: 0.092035661455 xtb: 6.4.1 (79825abcba525fcdf90b791dcacef51065a7a4e7)
C         2.96328222661088   -2.30764456026139    0.76224480734621
C         2.17212314719047   -1.03170189056521    1.06814967797130
C         0.72366259807129   -1.11580888242373    0.56298337887077
O        -0.18289601111340   -0.15220994584820    1.09047469549240
C        -0.55731052371316   -0.12434521699269    2.45299919525077
C         0.53778248311003    0.30647153101613    3.41062796145281
N         0.80378377436022   -0.38752975589330    4.46972133554210
O         1.35538824593118    1.35299669140697    3.26887707674591
C         1.78661291504201    1.94774794089872    2.03000074917554
C         3.10354568458427    1.39188302831770    1.46074741400534
C         2.91532074566134    0.19648834113291    0.49384347926081
C         4.30862232432113    1.22523125598194    2.42550130776922
N         4.14518844399727    1.41939771366858    3.77761735770645
N         5.41802518806570    0.84140443793532    1.89065333088417
C         6.62349938715461    0.73517114299778    2.72612990347806
C         7.21751778515153    2.15241528103848    2.77570546156958
N         7.30308871830353    2.67342313084407    1.40957216505143
H         2.65837160338763   -3.19207735755309    1.33055993857470
H         3.95250673056693   -2.02270304140115    1.13671251131274
H         3.03804209973146   -2.58975897019481   -0.28597237285988
H         2.07639252176993   -0.93915512833247    2.16248429748859
H         0.36187918597358   -2.12883098368092    0.72403350825051
H         0.60239938997865   -0.98007066485235   -0.51918153476638
H        -0.96208141748635   -1.08923604767212    2.78135875090158
H        -1.37584252268478    0.59531690054434    2.42101049718667
H         0.12996742869422   -1.15835061865278    4.59416568345216
H         1.99010756303059    2.97476182440304    2.36610891644808
H         0.98506717692776    1.96818209908729    1.28976721877025
H         3.43475599240945    2.12942113521381    0.70781774772892
H         3.86245999787571   -0.15971295162245    0.06597772717351
H         2.36800583507941    0.58307341802500   -0.37839057045935
H         3.19135065081646    1.59229059629272    4.09301893389983
H         4.79713808147227    0.95465844660366    4.39764847248014
H         7.28834477447930    0.01509242648055    2.23408996122846
H         6.43630130110521    0.38116432466356    3.74724369180863
H         8.20512498797067    2.21311821084568    3.24640037666106
H         6.50466729693218    2.75431305587673    3.34847571026050
H         6.45094904573476    2.50412248248923    0.86959981320361
H         7.96787535459827    2.00596816972780    1.02619266640154
