39
 energy: -54.532431797704 gnorm: 0.107210010959 xtb: 6.4.1 (79825abcba525fcdf90b791dcacef51065a7a4e7)
C         3.61230780240118   -1.56325945081391    0.35173323767384
C         2.57614198044069   -0.68245814797311    1.05748788131566
C         1.20208589830009   -1.07378912618628    0.49256764350559
O         0.13337280073521   -0.32187491397607    1.05922082814304
C        -0.25806100732688   -0.67695328181506    2.36999715643360
C         0.57626953924954   -0.20722074243484    3.54691195672930
N         0.74736910996833   -0.83543234461310    4.66501228352698
O         1.21899446448315    0.96140968859905    3.61758699852022
C         1.39193753711441    1.92471768028601    2.56088140587191
C         2.77262415752646    1.83022577860083    1.88848062224965
C         2.89963979724507    0.79623818421026    0.74216610356585
C         4.00367606200817    1.65988355377980    2.81919397572727
N         4.11178421660340    0.61114522032026    3.70298670288613
N         4.91586458481506    2.43735608045160    2.34211046935567
C         6.30466659774048    2.29321651700713    2.80355105358046
C         6.99473535695530    1.11186645173249    2.10204291841356
N         6.90261513190022    1.10167013759108    0.64036523782246
H         3.56061054321293   -2.64330015035239    0.52206651615850
H         4.60575264115347   -1.27650782434257    0.71342882806944
H         3.61662787982557   -1.55190937035054   -0.73628760043790
H         2.64294216375005   -0.92574196683106    2.13063662277866
H         1.10450149814325   -2.15465404927077    0.56500005990528
H         1.24008807678175   -0.85362569436122   -0.58181330623201
H        -0.35246771582265   -1.76688841110830    2.44617170228398
H        -1.23530281010592   -0.23134378683430    2.55804528480222
H         0.28623399084679   -1.75717981135122    4.70263763926808
H         1.40679691937166    2.86780002256750    3.12613460622551
H         0.59468328183780    1.89952606115993    1.81617352036802
H         2.92712372989491    2.84630704407040    1.48317265887855
H         3.91787828774766    0.94148236660283    0.35601104186824
H         2.24291054744918    1.17598603533892   -0.05425848491723
H         3.27532753482312    0.13049052408461    4.03236173548807
H         4.99379946695415    0.59688991247029    4.20028478696642
H         6.28111692179513    2.09881848189448    3.88257416031930
H         6.77600070656517    3.23915162060366    2.51014304594905
H         6.63642181249825    0.12976759478198    2.43021935393531
H         8.01538317470389    1.17169217857610    2.49345244859537
H         7.40409383626944    1.84785106993054    0.15240212892046
H         5.93418614756978    1.07066748539148    0.33117052085579
