39
 energy: -54.538372891303 gnorm: 0.099097652816 xtb: 6.4.1 (79825abcba525fcdf90b791dcacef51065a7a4e7)
C         3.24847875434652   -2.24264994267887    0.98497495232202
C         2.36941735564893   -1.01734338655483    1.25592713173611
C         0.93091951262253   -1.30622319556429    0.80032053699975
O         0.11288310268365   -0.14563226578611    0.91196125500852
C        -0.47450914516334   -0.00035109930162    2.18918457770565
C         0.44132470338224    0.29252513463558    3.36279290090891
N         0.28480961539034   -0.35495586508971    4.47200191059338
O         1.27295983920278    1.33758271345629    3.36779998236558
C         1.67258240208673    2.00544864861219    2.15587786272675
C         2.95453277380104    1.47277658726303    1.49239402096441
C         2.85994373771610    0.25919249184078    0.53449691221302
C         4.10633762662250    1.25533286593492    2.51062602460072
N         3.90891947168371    1.33193554938409    3.86995936812554
N         5.18661283214677    0.90243124898574    1.90019502134801
C         6.52205057569497    0.65731105366352    2.46499299548805
C         7.42050674245600    1.90262727278000    2.54154716335001
N         7.58842715265974    2.66503607998911    1.30234287048438
H         2.92107142526468   -3.02461374100279    1.67744228953353
H         4.30506598796982   -2.06118025825841    1.21008607731752
H         3.20522018494952   -2.59568284539079   -0.04334080822144
H         2.34758581657105   -0.86846723755411    2.34801540371270
H         0.47603731474831   -2.15191552033955    1.31112856455417
H         0.82608336744079   -1.53450257980559   -0.26790623710686
H        -1.14428940112514   -0.85008223462473    2.36814043172368
H        -1.20087729318194    0.79814478859414    2.03515501769618
H        -0.31589960430836   -1.19324917064364    4.48161593997232
H         1.88009057201615    3.00697501604781    2.55963717478425
H         0.81028000514917    2.08761616286935    1.49215963591046
H         3.25227883623667    2.28555558924611    0.80587862883019
H         3.89233296052556    0.09972857759287    0.19425436819972
H         2.22205422549014    0.49099462888091   -0.33104257486577
H         2.98572113759470    1.59564270199446    4.21250863726501
H         4.70003419208183    1.28595260061122    4.50042154627676
H         6.88246264194687   -0.05969473757638    1.71756949809144
H         6.44364524916759    0.13725689189417    3.42750719358903
H         8.43357957035411    1.55675290439784    2.77534386302439
H         7.18974983467504    2.62237667602587    3.33351593923696
H         6.69890643251117    3.02505497528574    0.94806310479322
H         7.98359510626336    2.09418724866225    0.55911266821408
