39
 energy: -54.533030989535 gnorm: 0.101628040237 xtb: 6.4.1 (79825abcba525fcdf90b791dcacef51065a7a4e7)
C         3.48487144749619   -1.30193043570686    0.13815424546947
C         2.42877868932907   -0.48693779662534    0.89180883843279
C         1.05339215275991   -1.07253752815275    0.53728133624506
O        -0.05147555669720   -0.36860814537987    1.09618139382645
C        -0.21378285624343   -0.74255415407687    2.44942061388520
C         0.88933079367164   -0.38247899479258    3.42685129299480
N         1.35195722228127   -1.23200542424887    4.28612706413537
O         1.24553284019916    0.88087180052886    3.67353378544286
C         1.25661812515360    1.91529195333806    2.67136096384692
C         2.57507568722282    1.92858528937902    1.87836663550871
C         2.60736546186749    1.02478265367839    0.62082997769656
C         3.82374809074445    1.61276009234854    2.74543310074306
N         3.73008343842300    1.94492970279302    4.07716855324244
N         4.81992361755710    1.14953741361074    2.06925328949289
C         6.11738677002579    1.00053034105756    2.74516814730773
C         7.35075455418935    0.78513929249778    1.85280772799012
N         7.78740758776959    1.94461951163938    1.07176260475614
H         3.22530218076984   -2.35910837462256    0.25292597429463
H         4.52066920224162   -1.09453730317638    0.42814379874359
H         3.41192240769452   -1.04916545344784   -0.91765119839981
H         2.63156741893539   -0.68228188925957    1.95764884544774
H         0.97510375205103   -2.09424552721125    0.90200293405879
H         1.00136812812418   -1.09877297781130   -0.55853604250349
H        -0.45276574538646   -1.81026234236990    2.52398723797367
H        -1.13461506505790   -0.22876758611183    2.72695055884062
H         1.22232297324875   -2.25487741757398    4.31077451271604
H         1.17708529805591    2.83330703612099    3.27141022325203
H         0.38126451647105    1.94676855954205    2.02051222969663
H         2.63037568940489    2.98297091794063    1.55313035104795
H         3.56425901594029    1.29169025755455    0.15164315180147
H         1.83640589268170    1.29997525293623   -0.11380205926426
H         2.77884408202661    2.11641534256813    4.40107130764235
H         4.52377488502808    1.75769322520974    4.67754833043057
H         6.05110141942612    0.15887504210921    3.44506717692708
H         6.24784354734610    1.87153551931579    3.39890228302586
H         7.14234668602934   -0.06277632254777    1.19083204906889
H         8.16064939874722    0.47959126338381    2.52304145037853
H         8.21244319911196    2.64195565648729    1.68775115968912
H         6.96721464138148    2.39282742219335    0.67075084214146
