39
 energy: -54.523492283497 gnorm: 0.117168865579 xtb: 6.4.1 (79825abcba525fcdf90b791dcacef51065a7a4e7)
C         3.32174016854928   -2.03792098945235    0.58749774071036
C         2.55670667062975   -0.90061534021500    1.27218730109508
C         1.10699973553189   -1.22489991948557    0.88040386881967
O         0.11513237996855   -0.20277584912062    0.88935066197524
C        -0.61925703681390   -0.09384866984577    2.09194898787730
C         0.12376613718957    0.19650958159662    3.38248890289391
N        -0.27017226106082   -0.09714810954583    4.57942288049275
O         1.38387490541175    0.63395860010419    3.31502280375293
C         1.56041120461393    1.72510025104758    2.39158186065294
C         2.91992022413100    1.63099872346398    1.67727993408393
C         3.07361297812700    0.43939579265514    0.69964946396700
C         4.11166417582560    1.47205844403321    2.65973450295203
N         3.92302073442155    0.72092268363263    3.79676475347561
N         5.27436916499269    1.82337051584562    2.22515765389980
C         6.50671883244764    1.63383926911897    3.00481582158722
C         7.61850699116261    2.12899365568685    2.06532353330877
N         7.67133666821239    1.56666459990520    0.71399574079814
H         2.89546441094422   -3.01197619352633    0.84765037022038
H         4.34119914455255   -2.02023660386281    0.98796435380391
H         3.37576756634387   -2.01826899746361   -0.49907102246559
H         2.75762355293375   -1.02190288179070    2.34932204268938
H         0.72804421164095   -1.99034358252450    1.55384790570773
H         1.08575435838598   -1.61511236073472   -0.14501966102080
H        -1.25487326698723   -0.97306191027892    2.25210476935916
H        -1.24350923264756    0.78570036142160    1.93184222693148
H        -1.19695491736009   -0.54840387076174    4.61291632145899
H         1.52064435629673    2.55732631480433    3.10918528282173
H         0.74228936028453    1.95128998821405    1.70575851242283
H         3.12338623003643    2.52298062658468    1.05797736622772
H         4.14485969477949    0.34669996138678    0.47412963384498
H         2.64172986761705    0.70404209821739   -0.27668714969462
H         3.00275177923565    0.38661027926980    4.08051975062644
H         4.70369947767046    0.31674006291370    4.29939444555664
H         6.60787732962597    0.56125976231728    3.20969678371113
H         6.36166429403053    2.25530476225655    3.89687923941601
H         8.61771972320890    1.99764933838282    2.49535739385064
H         7.36736678992427    3.18681381985246    1.93707531047057
H         6.69400124534470    1.60185871742095    0.41407622321850
H         7.93372382625103    0.59552661749832    0.86386646756387
