39
 energy: -54.521122444366 gnorm: 0.108359728157 xtb: 6.4.1 (79825abcba525fcdf90b791dcacef51065a7a4e7)
C         3.87982211335314   -1.30389482988883    0.25577852553538
C         2.83744325589050   -0.53882131481573    1.07775724688252
C         1.47523504359301   -1.13067052688113    0.68480908246106
O         0.42368090172774   -0.24066447161188    1.04639120744327
C        -0.29226732631915   -0.60920563649566    2.20786924449088
C         0.50499183075984   -0.35695004491216    3.47381930708060
N         0.59716635137462   -1.10153190786128    4.52794213765285
O         1.22750487961508    0.76221198597061    3.56993717118059
C         1.34026308600783    1.89069076203773    2.68206355602442
C         2.71134398627654    1.93053969295478    1.98500091376588
C         2.74700437124320    0.97324920728059    0.76778129773744
C         3.98750847871737    1.68208355230847    2.83376846016643
N         3.92949331427196    0.85644079634279    3.93266669700367
N         4.99634808802466    2.31645868815264    2.33983432832997
C         6.33964897513765    2.03128904031673    2.86585301298767
C         6.84484906636198    0.87753879950049    1.98407651660702
N         6.92896944072741    1.25859689560339    0.57240720805902
H         3.95692894052203   -2.32548598610512    0.64123928934615
H         4.79101207599592   -0.71114753529954    0.12025603894537
H         3.48997425160392   -1.45892308946889   -0.74817452244269
H         3.01671483493514   -0.64837916182957    2.15995699595778
H         1.42400924065155   -2.12951024119254    1.11228224765657
H         1.44472303984036   -1.24120069239262   -0.40654907927972
H        -0.57987070508969   -1.65977981608222    2.08038601191380
H        -1.17159012686919    0.03412751034584    2.25082673665966
H         0.04478382197558   -1.95774887533649    4.36842502112437
H         1.18495157307684    2.86066660662095    3.17619053869099
H         0.61889183124098    1.69268349365389    1.88754769613235
H         2.84435571736981    2.94118144773926    1.55899982263864
H         3.64923981738760    1.17124742340394    0.17297952882818
H         1.83726544680065    1.08822045795084    0.16036828257099
H         2.99899086243189    0.57659246311853    4.24093075950246
H         4.68212992679658    0.97408234946195    4.59986838577648
H         6.21990862704750    1.60120187042633    3.86751329741503
H         7.01485066378276    2.89049334088518    2.77147098249569
H         6.32026251821074   -0.06475121031695    2.17773866206323
H         7.88454489189229    0.77053310465533    2.30978325529132
H         6.47504936499493    2.17251025153980    0.50103624400341
H         6.42226385191555    0.59704931997997   -0.01070640649706
