39
 energy: -54.522395944928 gnorm: 0.106736080047 xtb: 6.4.1 (79825abcba525fcdf90b791dcacef51065a7a4e7)
C         3.40324234121417   -1.38108907656365    0.13521132735827
C         2.42031195719723   -0.54642624200970    0.96269304928609
C         0.97153820489759   -0.91490725568797    0.60831851661320
O        -0.10059821901875   -0.26377058324402    1.28297623759667
C        -0.36891396821611   -0.65501906085685    2.61427897436547
C         0.83222312924096   -0.42879452941241    3.51315425005145
N         1.38719139332350   -1.44506813938680    4.09045089371696
O         1.27057242299062    0.82625181445488    3.64159093204656
C         1.26693435347299    1.74216830818291    2.53002354076909
C         2.63868474170779    1.84398962095876    1.84061771980370
C         2.67835319492025    0.93165961884976    0.58946596790395
C         3.91548261959315    1.72320546415700    2.71579254308368
N         3.76808545390204    2.12938250765278    4.02190254809019
N         5.00401284808431    1.40939341718805    2.09871554093031
C         6.20461423526655    1.04769027627827    2.86696146166443
C         7.39113270366296    0.85521760776176    1.90830369002163
N         7.84577746910859    2.01698614801808    1.14104640822359
H         3.24605929741716   -2.46388578561295    0.16712887721084
H         4.37642724595012   -1.16636695650072    0.58995125639101
H         3.46839283174850   -1.07960438115354   -0.90824410076473
H         2.71469104388466   -0.81286272689200    1.99111420245830
H         0.77869899050877   -1.98524395846142    0.62350207871599
H         0.84846138209238   -0.66016544481341   -0.45194995931493
H        -0.66136891059442   -1.71195741295646    2.60925730358197
H        -1.27555822419948   -0.10620192426329    2.87065256446395
H         1.05341490417381   -2.41923450536405    4.03324246675755
H         0.86836559121807    2.70482776985910    2.88154307714150
H         0.46794699642500    1.50213729881650    1.82657267067482
H         2.62912407225699    2.90226347040669    1.52355170320410
H         3.66531893762909    1.13649073755760    0.15247160570751
H         1.88799949815423    1.18624188269960   -0.13186805663508
H         2.83748980431117    1.87376413177909    4.35027372175449
H         4.51925119436700    1.77841178289075    4.60330523731063
H         5.99943254030012    0.04848434631939    3.26960774591148
H         6.45424173429999    1.74754477393313    3.67376199918452
H         7.16648690717677    0.02567475103045    1.22859827747863
H         8.23278568798134    0.48397144630164    2.50185153587333
H         7.65924328254898    2.87807319070469    1.66076649896917
H         7.18830458047747    2.10146854886704    0.36967790989732
