39
 energy: -54.521938444869 gnorm: 0.095182688481 xtb: 6.4.1 (79825abcba525fcdf90b791dcacef51065a7a4e7)
C         2.82931111241673   -1.74889272026160   -0.05617127951525
C         2.10218314623983   -0.64499310436458    0.71857431735073
C         0.58913757341311   -0.90320967799498    0.65283048692626
O        -0.15765225926271    0.10595838631407    1.32551413180045
C        -0.27718079523317   -0.12849787304849    2.71410293836934
C         0.97859460356495   -0.18653264697896    3.56354083024723
N         1.19308586895356   -1.08139129482726    4.47309827266652
O         1.94393958093065    0.69382078436252    3.28627862894081
C         1.73762029723315    1.78817649076417    2.37286947189682
C         2.82753794518168    1.69722812650248    1.29067030165810
C         2.32392534121504    0.77626694162613    0.15158946688302
C         4.22536688495496    1.47074367286142    1.92746826307187
N         4.50008137517517    0.37626827931332    2.71441464292918
N         5.03746957005033    2.44971684069343    1.71238490339213
C         6.25360392134859    2.58351863352590    2.52822125954796
C         7.23179631089851    1.39733547168000    2.53060217321012
N         7.26001951255820    0.54824134928051    3.72363794652618
H         2.41379443106729   -2.73605207610061    0.16974075173334
H         3.84625272464372   -1.71241747833029    0.34939272713477
H         2.90617318953692   -1.58142215030350   -1.12854372689056
H         2.45082325532442   -0.70642953415793    1.76259211185355
H         0.37517028177298   -1.88662433965656    1.06532504904374
H         0.18431226819728   -0.81798514487499   -0.36356696801513
H        -0.79636554364507   -1.08527937612583    2.84710722971933
H        -0.90582665171398    0.67380973168429    3.10145080522922
H         0.32826494159125   -1.63546451100635    4.56673214008867
H         1.90634195603764    2.66825651601417    3.01015154949309
H         0.78330924984639    1.69554170932463    1.85176674918216
H         2.83236118215569    2.76831360110294    1.01989650701416
H         2.98197205183428    0.86814237508717   -0.72337033528418
H         1.32593714642626    1.08473337789123   -0.19288388143279
H         3.79558047619622    0.03202838634385    3.36583924318626
H         5.42397041847599    0.37694679821045    3.12900851136668
H         5.93454650401991    2.85587732687133    3.54146315982744
H         6.86569869597010    3.42267879187944    2.17581874751204
H         8.24544220396947    1.77196861459759    2.34955372383685
H         6.96892273824353    0.74295787026820    1.69323132389889
H         7.46004069423091    1.09436440107287    4.56513423773294
H         7.98033707759573   -0.16911915776758    3.75452065331021
