39
 energy: -54.527124104087 gnorm: 0.113998841469 xtb: 6.4.1 (79825abcba525fcdf90b791dcacef51065a7a4e7)
C         2.57854812337720   -2.62870768727830    0.99439636743960
C         2.05733034782532   -1.22317384900225    1.31117206057192
C         0.60645325940851   -1.27273025656859    0.80837509441948
O        -0.16635519617711   -0.09405028341126    1.01355582819526
C        -0.53227937510497    0.18047260742056    2.35078145199256
C         0.65913440455876    0.47062264153980    3.24421908122353
N         0.80725233771488   -0.23327400653833    4.31970215461084
O         1.52723413440130    1.47942437517943    3.13237390946305
C         1.91964598754993    1.93137270706536    1.82231514225403
C         3.15190268171725    1.17320247757269    1.29879968516053
C         2.83006803196181   -0.13376353795414    0.53227336677716
C         4.26681307007163    0.95283057918927    2.35669553045961
N         3.98830101518239    0.58893055749498    3.65386044814079
N         5.46033509477930    1.19447346856512    1.93093274291108
C         6.68040226662928    1.11636076981088    2.74812863679903
C         7.27628657394052    2.53088583991206    2.83721981210126
N         7.48929225063159    3.21880747107274    1.56188293526423
H         1.90922453612588   -3.37992444009690    1.42550340550029
H         3.58261229308983   -2.78678984474314    1.40286671078879
H         2.72777667130681   -2.78926750289176   -0.07138420261021
H         1.98004275601004   -1.03063622188939    2.39387857775376
H         0.09936603558045   -2.10254595978055    1.29551635656884
H         0.61712688722915   -1.40021630305939   -0.28150742995757
H        -0.98942582365485   -0.71144640275267    2.79594591582667
H        -1.15783071698632    1.06725822505687    2.24481794020116
H         0.15104057401483   -1.01368089437602    4.47472110474062
H         2.30837536868418    2.93797409018495    2.03392662799446
H         1.19129516436409    1.90596611773115    1.01009694803998
H         3.56915695933126    1.77688985222550    0.47295089977731
H         3.78873961071230   -0.60113337543080    0.26857757195797
H         2.23803186624605    0.18817346917331   -0.33700426980936
H         3.06805285266160    0.57443193818398    4.09216367909547
H         4.77262861072880    0.32907990769749    4.23932381164365
H         7.34178099625838    0.48963958292249    2.13785429246619
H         6.70107313245097    0.66280742871049    3.74657712452485
H         8.15974068505225    2.69603055671681    3.46399136887966
H         6.51925791381539    3.19012831798465    3.27403724100658
H         6.89173559367533    2.77315369016752    0.86138766770502
H         8.37937181788918    2.95550848410025    1.14613151653960
