39
 energy: -54.518682380146 gnorm: 0.122497438785 xtb: 6.4.1 (79825abcba525fcdf90b791dcacef51065a7a4e7)
C         2.95429430328626   -1.97913670213369    0.35976170725158
C         2.18360445822492   -0.84341618898227    1.04072885079442
C         0.72592173368039   -1.09501962087051    0.62580509470117
O        -0.12583435027257   -0.08625461395801    1.16014884951338
C        -0.50101143123083   -0.27462385087900    2.50966538185875
C         0.67529255300962   -0.22729799431434    3.46672014366836
N         1.16708428988346   -1.25442599787407    4.08090431540584
O         1.46285310187163    0.84461679632132    3.58727916185710
C         1.55039934818613    1.78831297728143    2.50271865466923
C         2.83230391814384    1.57953143702544    1.67780774075996
C         2.77098162220592    0.50498929273754    0.56385125804553
C         4.12224955475007    1.44515338671242    2.53145600869675
N         4.24533481403217    0.34529921877699    3.34864623177309
N         5.01882747355972    2.35637380132333    2.35829291236806
C         6.25204831352581    2.34466393180182    3.15923228386591
C         7.36049994971056    1.56623082506172    2.43172050279734
N         7.82650106960587    2.27201097819199    1.23597426160545
H         2.89408290842966   -2.92514884182470    0.90712773551715
H         4.02014976146063   -1.79453025230161    0.18697442605121
H         2.57623912916399   -2.30101768617192   -0.60843442534869
H         2.34528669931460   -0.83974357505369    2.13120712777302
H         0.37009796970159   -2.12276424381327    0.63878935863254
H         0.73576684287463   -0.90488236694544   -0.45491754915706
H        -1.17054454385742   -1.13797937004958    2.60462032841377
H        -1.10493069032994    0.63191080269494    2.55873599879465
H         0.57815254568787   -2.09940811425386    4.02757245347487
H         1.70453319526246    2.76112746619838    2.99160618602338
H         0.66240094855349    1.77149023694590    1.86867241040293
H         3.03885441778215    2.55058995372660    1.19309334647869
H         3.72675680295167    0.39955275475628    0.03243978107868
H         2.07002225183850    0.95239413452578   -0.15606452572637
H         3.36973061187513   -0.05021156474696    3.68932956195065
H         5.05571627877980    0.42141476794753    3.95109772666369
H         6.00948230956903    1.90564126084025    4.13445373058942
H         6.60280335700940    3.37062072436943    3.32482477275823
H         6.86667187223546    0.66609409124909    2.04897486459332
H         8.22936474348144    1.26907255191915    3.02776868130820
H         6.99115944468265    2.66675335724344    0.79693246984173
H         8.28265773768952    1.58337564556665    0.64257750695728
