39
 energy: -54.521860152791 gnorm: 0.115253975593 xtb: 6.4.1 (79825abcba525fcdf90b791dcacef51065a7a4e7)
C         2.52706192685368   -2.59079458888254    0.93085223359136
C         1.93592940845235   -1.19298295101358    1.14114992902588
C         0.50750083298501   -1.12637544220879    0.57949152069289
O        -0.16856499382601    0.04273473784155    1.03196792341424
C        -0.56073301564622   -0.06921991005691    2.38515160482793
C         0.51366929640486    0.23875672503431    3.41116070156895
N         0.47913918786459   -0.29426821205880    4.58961957869043
O         1.51096421670230    1.11880246136892    3.28987698109167
C         1.85225722802937    1.73121122638807    2.03171447413731
C         3.12525018655885    1.23760872031407    1.32235379757812
C         2.80305046961029   -0.06141321481539    0.54259125714420
C         4.30965155061573    1.16036114150883    2.32333271657063
N         4.11108777981387    0.39295703488957    3.44774029574438
N         5.37788936889909    1.81087233991938    2.00732130304709
C         6.53894969643533    1.68527066365857    2.90098666474105
C         7.64022524457270    2.73617081400223    2.68489046282170
N         8.22987547993283    2.47384834181189    1.37013144889961
H         1.88723687440239   -3.22217408976300    1.55547834456731
H         3.54479286071485   -2.72045558582935    1.31477229057324
H         2.46293826480619   -2.94364205788005   -0.09643723308283
H         1.96204957399896   -1.02653537938686    2.23060412511828
H        -0.09285129754850   -1.98518043149532    0.87115822032892
H         0.48531082632927   -1.05273014283999   -0.51517486667626
H        -0.96650429006711   -1.05912287558021    2.62622332979789
H        -1.30119182286358    0.73030241895748    2.42278500835309
H        -0.33996323488427   -0.89350326450355    4.77310863679525
H         1.79312496812303    2.81305092302881    2.21949763908019
H         1.08119113292739    1.46981884126626    1.30509908927863
H         3.44006241148615    2.05160434420449    0.64495422879641
H         3.75835859230999   -0.46055723367234    0.17504308400646
H         2.23987226080002    0.28268476389842   -0.33730688845494
H         3.15460872304729    0.35568755337578    3.79836178977756
H         4.82192152829577    0.29274892005302    4.16197639550105
H         7.03547942150790    0.73278859895833    2.67991609691708
H         6.29959153153587    1.88557024408907    3.95247373596945
H         8.44744967128080    2.57388027629149    3.40784069610513
H         7.34418813371575    3.79011666485190    2.69280717962366
H         7.85187875043597    2.94198742583616    0.54288351691604
H         8.33323412033316    1.46495855460827    1.29347882696759
