39
 energy: -54.524350778745 gnorm: 0.107963133491 xtb: 6.4.1 (79825abcba525fcdf90b791dcacef51065a7a4e7)
C         3.51401379187040   -0.97131658479363   -0.20281205529318
C         2.53558120916931   -0.31837113575474    0.77895782476024
C         1.20106885662598   -1.03176502353998    0.51353196220603
O         0.12762267549022   -0.27890542150188    1.06988997217596
C        -0.35721790620499   -0.72291938453441    2.32097625999213
C         0.73760541318533   -0.57544134995150    3.36092661609487
N         1.09740791711447   -1.45497277104006    4.23901538274050
O         1.37531586145153    0.56582471211676    3.63410158871296
C         1.35362016625791    1.77552168993917    2.85265368017586
C         2.61101504671595    1.97587562104853    1.98884611988551
C         2.44949310316488    1.21971555538889    0.64667142293309
C         3.97662458421052    1.74520565193270    2.69072541333084
N         3.98021725892399    1.44031149523273    4.03223787775888
N         5.00454189371999    2.12003974701789    2.00731814952258
C         6.31804999272668    2.19285335916472    2.66448578355650
C         7.00688622682337    0.82180283731822    2.56639582078149
N         7.38599406699499    0.37662486660189    1.22356837003045
H         3.26364146962916   -2.03259593018953   -0.29859202406495
H         4.51887908112840   -0.85789647921407    0.21833456656463
H         3.54539379043169   -0.47542525699139   -1.17082234620710
H         2.94200931221444   -0.49159872072835    1.78896075354075
H         1.29611836171283   -2.05274712640426    0.87629813871938
H         1.02678971796476   -1.14488893510930   -0.56398383589369
H        -0.59061940377558   -1.79301219729576    2.26530847521783
H        -1.19576363871730   -0.05338492130202    2.51461543305013
H         0.71901058358928   -2.41210544229937    4.17274193837766
H         1.30463037264188    2.58215948765947    3.59835586488482
H         0.42905913149375    1.95525717966615    2.30154493365873
H         2.60023511884838    3.06757320559708    1.81959488000912
H         3.31712263989243    1.52248046129307    0.04453054738861
H         1.60551763665443    1.61637219015986    0.06343666757933
H         3.23760675961113    1.00072186106598    4.57488621904105
H         4.91324480580010    1.47851226255036    4.42397732938387
H         6.34663864583452    2.43553157038266    3.73356296353403
H         6.89458521498814    2.97335642249759    2.15315475320897
H         6.26891346381632    0.09260716466517    2.91892441184825
H         7.86259195457823    0.80688993289010    3.24907277029042
H         7.65162629769731    1.15210268022461    0.61164635761773
H         6.73684862604212   -0.28620668879742    0.80681693257133
