39
 energy: -54.526955317780 gnorm: 0.104058620905 xtb: 6.4.1 (79825abcba525fcdf90b791dcacef51065a7a4e7)
C         3.74568515555582   -0.99081077476785    0.10728800203143
C         2.53084829629304   -0.40637566759716    0.83540007549020
C         1.17160320711436   -1.01311418400919    0.45510268151288
O         0.07422249352504   -0.53180266335877    1.22498144294152
C         0.03216887620585   -0.96366437994571    2.57003260694558
C         1.06725334001844   -0.34196502442443    3.48871355491900
N         1.73223650553162   -1.09498960392503    4.30408133176009
O         1.09015432698924    0.98751487684822    3.61419718290748
C         1.17209690100192    1.96552097313949    2.56002081374567
C         2.54711300376622    1.97080044913833    1.86962241257241
C         2.53260526724423    1.11798140187313    0.57664541252654
C         3.78406096657990    1.74484045545612    2.78046512459774
N         3.64184417942756    2.26886685521849    4.04450618021435
N         4.86353577007980    1.37674984806166    2.17763549696049
C         6.11027684525851    1.43649142946351    2.95515868110585
C         7.09252628983578    0.53707057712683    2.18696293856377
N         7.18045904517326    0.65851771938028    0.73004490114467
H         3.64966765201022   -2.07976121894350    0.16333728557646
H         4.59579293634442   -0.48233050816917    0.57499242732304
H         3.69872915023373   -0.70934486060054   -0.94271624125825
H         2.61302863875769   -0.53956022071772    1.92664055423520
H         1.23685160103559   -2.08924199674340    0.59908094096712
H         0.99761613682297   -0.79977402507966   -0.60717082755817
H         0.30378000223332   -2.02373435407479    2.64181588065932
H        -0.95917144871430   -0.72293324441868    2.95503177004740
H         1.34404845401811   -2.05045654549062    4.29555934553484
H         0.98906743433131    2.89809552431430    3.11314033786571
H         0.45204237414497    1.64741059462784    1.80426550503657
H         2.69784440846203    2.98844665569508    1.46682959533420
H         3.43899729999466    1.42829834517251    0.03889257418414
H         1.72665086568007    1.48122561557880   -0.07778946529452
H         2.67912690719047    2.32163385270832    4.37551636089528
H         4.34608424639746    2.06203371446858    4.74216331738855
H         5.87150251975822    0.99100772523586    3.92838380585979
H         6.39161353898876    2.48611574306544    3.10407404846173
H         6.78344018334500   -0.50163119342770    2.34873731050698
H         8.08563949939781    0.62137212474796    2.63986680084816
H         7.67561708631861    1.51440547415203    0.46803433489813
H         6.28601802100739    0.58705309721024    0.25120745721074
