39
 energy: -54.529803996410 gnorm: 0.095905462333 xtb: 6.4.1 (79825abcba525fcdf90b791dcacef51065a7a4e7)
C         2.90827408942034   -1.78317650050728   -0.12772358165021
C         2.18384319655178   -0.76926474216082    0.76374879381981
C         0.69453513516307   -1.12124194398443    0.62818151373028
O        -0.06113950423685   -0.03611950928826    1.15741082214245
C        -0.36808908660412   -0.19088118265996    2.52827422360835
C         0.82106376826897   -0.03024673173377    3.45671198888926
N         1.10074079509886   -0.98524227328257    4.28365668044732
O         1.57821153664990    1.06677480089225    3.54072641190511
C         1.73663675764256    2.02804632463675    2.47989804114770
C         2.86931683624857    1.77848663240783    1.46890699384736
C         2.55213326395528    0.69078349440267    0.41268885595680
C         4.23903682120839    1.72321711887062    2.19797836375999
N         4.49645354262059    0.55471453831735    2.87692418608963
N         5.04974498012819    2.71301560357250    2.03301973159185
C         6.28461691158971    2.51202511686434    2.80578671731177
C         7.07446658923473    1.30739836950828    2.26828468953832
N         7.28644819547199    0.33801689313326    3.34552890545117
H         2.57841795517553   -2.79884992232747    0.11264359377632
H         4.00014944130175   -1.69749568651645   -0.14893342381069
H         2.66773316887181   -1.63335311285120   -1.17826146950531
H         2.49372733543158   -0.88830218302861    1.81498588374756
H         0.48950495740981   -2.07138902024770    1.11626072803239
H         0.36865766903743   -1.26538757116600   -0.40971850327596
H        -0.77952322918655   -1.17144855142382    2.79638497214865
H        -1.09996382682100    0.56164014203557    2.82323607912544
H         0.49906510094388   -1.82289191290771    4.28667368183800
H         1.95736851139003    2.93853047846078    3.05559969022152
H         0.75870104408982    2.11736589032123    2.00397518052860
H         2.80012112669861    2.70720829435675    0.87455537880378
H         3.41646919040537    0.61847369146494   -0.26163741872664
H         1.66714930820854    1.10231551764502   -0.09449815166803
H         3.68029078433663    0.12769261196565    3.31362462126056
H         5.32186320909734    0.48317649704615    3.45919619693625
H         6.04676481249778    2.38193378949673    3.86839609041612
H         6.97321845223346    3.35940925276861    2.70183783342467
H         8.04755117614605    1.67618854542880    1.92520054415478
H         6.61008126522454    0.77586365451449    1.43143367224973
H         8.08000598001873    0.60770198195137    3.93196804756618
H         7.48478311388495   -0.58654548221481    2.97100933221828
