39
 energy: -54.517331816040 gnorm: 0.117359983051 xtb: 6.4.1 (79825abcba525fcdf90b791dcacef51065a7a4e7)
C         3.00796953598533   -2.32992122568835    1.60427526305371
C         2.09829067435500   -1.11478358033770    1.39579252057214
C         0.67729488755283   -1.51718488202649    0.97253241019834
O        -0.15082940735354   -0.36293289847297    0.86991157231046
C        -0.62006963387457    0.19355693010233    2.08134393592845
C         0.35178026512751    0.37560921763208    3.23210428302405
N         0.40298097722457   -0.20840605604835    4.38552437321355
O         1.20178467515509    1.40491728683946    3.18962105028376
C         1.79459290038666    1.89830056405610    1.97321253789991
C         3.07871160602037    1.36706883125693    1.31277397805121
C         2.76247926986547    0.03033287157464    0.59692872498736
C         4.39693795534137    1.13769148953354    2.10042742053662
N         4.43080761488390    1.06078107312982    3.47358680577623
N         5.44255874338436    1.03843385287463    1.35143797544662
C         6.82075843328036    0.77965550470342    1.79424044607546
C         7.42684507684206    1.76383995739012    2.80811246315852
N         7.31946894033326    3.16539690349373    2.39677290365491
H         2.56581490556330   -2.89911874069026    2.42810013878503
H         4.02696647238271   -2.02019595830636    1.86059215765125
H         3.03064285361173   -2.96508287322160    0.72110345613697
H         1.93680252539698   -0.70704300395234    2.40721069537697
H         0.24925154720928   -2.15316621223212    1.74411831706171
H         0.65484924982569   -1.95267237669934   -0.03447174600151
H        -1.52524865504960   -0.27546922566907    2.48549638112053
H        -0.94160285777539    1.20312618120614    1.82382151558043
H        -0.26127251687608   -0.99513915200617    4.44466825173832
H         2.03763022373652    2.94285038491500    2.21608045385108
H         1.06616117876600    1.82449098988573    1.16402887588212
H         3.32459096912690    2.13905545509020    0.56167757593936
H         3.73276331769959   -0.23675910832614    0.15621114661151
H         2.07553535693571    0.33077849765693   -0.20782860838321
H         3.51718106101653    1.27352844807180    3.87258770654549
H         5.15988943589895    1.44543198754732    4.06175588900465
H         7.41321759251592    0.88687283539135    0.87765295036319
H         6.80238055201851   -0.21975247676392    2.24577478397737
H         8.49393520213181    1.65429568286805    3.03155204641682
H         7.00090062164376    1.71321242269494    3.81534167026646
H         6.41326862055072    3.37886133800723    1.97297013576277
H         7.93352504670503    3.27188022724028    1.59302316916509
