39
 energy: -54.522541243453 gnorm: 0.106823268328 xtb: 6.4.1 (79825abcba525fcdf90b791dcacef51065a7a4e7)
C         3.56096050409059   -1.23901892689414   -0.26106132351686
C         2.71139963363784   -0.57421281515697    0.82697330091165
C         1.31278950698636   -1.19933769570927    0.71115646336005
O         0.24829490162464   -0.40728741907622    1.22896540767745
C        -0.30427013893787   -0.69985771560634    2.49644722871842
C         0.52055235960832   -0.28511759283017    3.70041693772828
N         0.78496644584794   -0.96830509263458    4.76691271751051
O         1.04809932018480    0.94101633697506    3.65484093406527
C         1.25120950037921    1.82985630313104    2.53984852807031
C         2.61844481234980    1.83960015444873    1.83421424492314
C         2.69357312272242    0.95006523633933    0.56836129907133
C         3.82776479258968    1.52182691398711    2.75470214261556
N         3.67885352821454    1.48234506745655    4.12177773493633
N         4.92728196376595    1.45527064393321    2.08329142204700
C         6.17937336367207    1.08153229114417    2.75787383171192
C         7.32916218995669    0.94075572338365    1.74690194999750
N         7.78622800904334    2.16740557523967    1.09000567059510
H         3.66476184794286   -2.30211607455264   -0.02184658850319
H         4.61148698160428   -0.93694716778169   -0.18943995621389
H         3.07672849129537   -1.13071773886680   -1.22942440048398
H         3.14406801069830   -0.82065237117359    1.81051950350242
H         1.34749660251191   -2.19380132228666    1.15033259075568
H         1.13625760650403   -1.40569384560284   -0.35207641683016
H        -0.72344821564765   -1.71260249651544    2.46023231895609
H        -1.01345669689152    0.12838322441712    2.49813507039223
H         0.33673243662960   -1.89024143181041    4.88004677575015
H         1.13316023246212    2.81596638351194    3.01185230590623
H         0.41320346052827    1.69406447062104    1.85417713414303
H         2.75579009528421    2.89114143455641    1.52443527564325
H         3.59129088782312    1.10976255382332   -0.04451781560924
H         1.78753153030257    1.22458685382827    0.00843238645245
H         2.77042471585671    1.44132092565112    4.58248452261309
H         4.31544937147776    0.84140835302610    4.57938604412164
H         6.16417771011680    0.17570851843394    3.37584505292596
H         6.43017890099996    1.91373602579903    3.42688119104654
H         7.18456290952363    0.26088997515556    0.89985995238267
H         8.15716636529692    0.52403837684309    2.32936074225851
H         8.15107898265799    2.84133068568441    1.76756274095119
H         7.04037258534523    2.67309622519035    0.61841910480917
