39
 energy: -54.518063646797 gnorm: 0.125124382440 xtb: 6.4.1 (79825abcba525fcdf90b791dcacef51065a7a4e7)
C         3.39826749186149   -0.63126677159170   -0.84610994785713
C         2.53720138938814   -0.10078693384985    0.30484464110041
C         1.12649638905016   -0.70625645443512    0.24465333797888
O         0.32283363494900   -0.58349621927496    1.41412955271041
C         0.79381439005839   -1.27440469307695    2.55354093626348
C         1.81186968772342   -0.46066353677729    3.33024769077018
N         3.00707354315849   -0.76568945590505    3.72078602433094
O         1.45237077211903    0.74753057484169    3.77162615795926
C         1.10518188070221    1.75655302021198    2.80424209936854
C         2.31340855118790    2.03954913003930    1.89460007933923
C         2.46867478776429    1.43420019063744    0.47729794087605
C         3.70066752639595    2.06413317210643    2.59147939016896
N         3.56926600030821    2.55006253953198    3.87180565849005
N         4.75865819626827    1.74603245283411    1.92542551877947
C         6.03551199909604    1.73762983909772    2.65484200783189
C         6.31229488192888    0.35335079356614    3.26398836868876
N         6.03414172927036   -0.86612455012735    2.50201563241256
H         3.44152433822048   -1.71269287387914   -0.68234065870792
H         4.34854758399120   -0.11184233544567   -1.01087900014792
H         2.84992035236654   -0.54362999530990   -1.78183001553701
H         3.01702528213484   -0.34105352526310    1.26782880958287
H         1.14195769670088   -1.78315493508011    0.09270344931665
H         0.55751550401624   -0.23955998695370   -0.56938946619056
H         1.16170704299158   -2.27434858486288    2.29384688105482
H        -0.10426571890450   -1.36435931306143    3.16533482712876
H         3.36168708223624   -1.66425735080312    3.35953176159309
H         0.90848057626257    2.66483336962073    3.39201050113716
H         0.25076915721411    1.47629281663968    2.18596066600101
H         2.14327133348452    3.10169149406642    1.64266211309997
H         3.41578419635443    1.76275040061097    0.02778736800436
H         1.62345557200263    1.74285714754699   -0.15525974047260
H         2.93546907657821    2.18290296033123    4.58079926663047
H         4.46051877699144    2.66033574050813    4.33974563027923
H         6.17372667741747    2.54934303220793    3.37917234513751
H         6.85896209904097    1.90209283060626    1.94920812626045
H         5.69937633860794    0.13585177446326    4.14582257617016
H         7.37980896688697    0.30528432073729    3.50190809704531
H         6.52677186459261   -0.89096043693455    1.60587189451099
H         5.02915063528658   -0.92432991117474    2.35702503850939
