39
 energy: -54.525010779279 gnorm: 0.112222756602 xtb: 6.4.1 (79825abcba525fcdf90b791dcacef51065a7a4e7)
C         3.25486861609079   -2.02186160679711    0.29828036867619
C         2.39157281432524   -0.93832255890090    0.95265309357794
C         0.93634269296269   -1.41754531678221    0.83882962432194
O        -0.02431040241013   -0.47391180720680    1.30285540811995
C        -0.26838846653982   -0.36349813379799    2.69054065735926
C         0.88466660646095    0.03982650400039    3.59036161657440
N         1.18940089510702   -0.54581516198923    4.70312126510812
O         1.54234769714049    1.18273531329110    3.37822395812338
C         1.55286392862015    1.95447780564899    2.16216424138904
C         2.77351423889889    1.59958294371854    1.29532541791661
C         2.48744461326050    0.45573053247152    0.29080257523191
C         4.07952842618409    1.41392430875924    2.11422126955183
N         4.23717134464674    1.98795028674180    3.35449218585295
N         5.01834904570069    0.75079271636062    1.52853156753984
C         6.38252203066658    0.60818200541796    2.05878518212562
C         7.29254590745450    1.84600263272272    2.11839356829937
N         6.89284004210928    2.81023040333216    3.14581352539559
H         3.52802780268058   -2.91200426021702    0.87378368140829
H         4.15832963675938   -1.49888077852569   -0.03373180736813
H         2.78029847707991   -2.41874399252595   -0.59681984422595
H         2.64813055806811   -0.89246906880349    2.02380812115039
H         0.75072024966698   -2.32478866591495    1.40934865906614
H         0.69143728979176   -1.45089951860788   -0.23033798232270
H        -0.65698760852904   -1.29206077436571    3.12578299358844
H        -1.02452445385152    0.40820075094758    2.83775019849181
H         0.76782584298066   -1.47404585983761    4.85914015677365
H         1.58926887896589    2.92469567067981    2.67838925043127
H         0.65438807935274    1.79128122029734    1.56471397028469
H         2.99232727077617    2.48246877556362    0.66826938549558
H         3.41181887539533    0.39613585756472   -0.29996128435164
H         1.60772677723013    0.51573133127552   -0.36668528783174
H         3.42670419373727    2.00125977199408    3.97266893574361
H         5.02820336995824    1.62960768578831    3.87537453546901
H         6.74764596067370   -0.22777018105950    1.45009436939164
H         6.29425609995064    0.23456061737917    3.08623518161272
H         7.33022529271315    2.32418501777421    1.13323956901598
H         8.27407207771139    1.45379496878974    2.40349360214261
H         6.66421780886057    2.30007367674231    4.00246214623339
H         6.16284050404332    3.40941216831715    2.76832296647677
