39
 energy: -54.521410963630 gnorm: 0.117601756428 xtb: 6.4.1 (79825abcba525fcdf90b791dcacef51065a7a4e7)
C         3.11054918591414   -2.52876741041794    1.14096538522221
C         2.33104704444627   -1.22950005051991    1.36860746134481
C         0.83126705135604   -1.45689273209138    1.12517883829011
O         0.12744017384592   -0.21918091995426    1.08890598901967
C        -0.60351022876347    0.09415413307874    2.25722458489706
C         0.35686063425127    0.48158899617058    3.36603775676152
N         0.27879214747094    0.28183852109670    4.64199947336019
O         1.41463675074881    1.26404941701484    3.13657580218812
C         1.74699299462400    1.86738573049335    1.87165566951717
C         3.00179737119124    1.33946269811386    1.15464078791235
C         2.77103659347485   -0.03861538328901    0.48609715393091
C         4.33346656175323    1.29154058595304    1.95156816872097
N         4.18344378723713    1.39748250221973    3.31498246165989
N         5.39117410814242    1.09013273650478    1.24104039968127
C         6.64563165982247    0.79759810724931    1.95043054923097
C         7.27373674999033    1.77429623329085    2.95812161352204
N         7.49813063705948    3.14438722955255    2.49165641526191
H         2.61313927608059   -3.36328669071223    1.64528165858101
H         4.10356191967176   -2.48648120542865    1.60153072618239
H         3.21569801475524   -2.82571844568644    0.09947575877621
H         2.43442397949176   -0.93869256785998    2.42692770304171
H         0.28379019061252   -2.10202983382424    1.80862991083979
H         0.67227246675264   -1.99192149848628    0.18036379032271
H        -1.33799068138411   -0.69639684224949    2.45277868314740
H        -1.19153701581268    0.96973920180082    1.98062603091388
H        -0.51316921658340   -0.26694661101529    5.00984691139046
H         1.90973985824011    2.88676196788207    2.25049842121095
H         0.86407562080505    1.78282773306056    1.23593114583923
H         3.07189251111863    1.99798888955802    0.27033556370169
H         3.79607098701292   -0.27435213248854    0.16867957190942
H         2.01790012982651    0.07762904458784   -0.30704001614869
H         3.25537166531622    1.30627669848547    3.72673514570659
H         4.89806856002081    0.97566703832747    3.89536393060092
H         7.36436515227225    0.59557110575790    1.14716016936624
H         6.69681085279242   -0.21679715189663    2.36445984864005
H         8.24130253824704    1.30739979094645    3.17359943091831
H         6.67560927205992    1.74593451611562    3.87460491020716
H         6.54752215909305    3.51441158694140    2.41549627369348
H         7.96936208555758    3.20396364515226    1.59231843287161
