39
 energy: -54.521533343045 gnorm: 0.114598655758 xtb: 6.4.1 (79825abcba525fcdf90b791dcacef51065a7a4e7)
C         3.35072678665496   -0.59857349837724   -0.60360652547315
C         2.42939911115187    0.01273975238793    0.45704968201645
C         0.98890484812090   -0.48189812066402    0.25551907154574
O         0.25074313855241   -0.71326606397129    1.45143072297626
C         0.99072570937376   -1.33556806569053    2.48225645803321
C         1.95978733900205   -0.45211909258197    3.24535677399430
N         3.05297181710370   -0.89802622107837    3.77468443891886
O         1.58508442530310    0.76868977169678    3.63652280063306
C         1.12010513477899    1.72895968185664    2.66896179877675
C         2.31319985152870    2.19886073896165    1.81862945735280
C         2.48672457341574    1.55738268408323    0.41945278000229
C         3.63854463517767    2.06350912543004    2.61604636900734
N         3.58864108009926    2.57986887628457    3.89021718658420
N         4.63831217347112    1.58544328163314    1.95568436598891
C         6.02649387870772    1.59488161467423    2.44079991556769
C         6.24248601873991    0.37430183631061    3.35043111442961
N         6.18619320414367   -0.88612646751608    2.60662781405322
H         3.63130463666712   -1.59516194822854   -0.24827360792398
H         4.17477614816602    0.07603464237833   -0.86017883436572
H         2.92796180012071   -0.88563715530544   -1.56423187116374
H         2.94513690282435   -0.17384134649630    1.41334437222444
H         1.02196395049516   -1.48150608066580   -0.17194926921487
H         0.41541374240387    0.19004998888771   -0.39548339935806
H         1.52657434521338   -2.20510040685049    2.08294012294383
H         0.21823213307236   -1.65263113854796    3.18343843098210
H         3.14475182142084   -1.90339302719419    3.56374918369132
H         0.65890400528928    2.55835848209124    3.22441425649320
H         0.30621419779908    1.32982958198186    2.06141302145228
H         2.18857113741733    3.28778220350443    1.67976435202677
H         3.42702882618362    1.87191994428373   -0.05374426925675
H         1.63489774526594    1.87525221449054   -0.19953338881642
H         2.74811923519323    2.38889386280677    4.43448569171520
H         4.34975757980284    2.31567541883155    4.50370148616461
H         6.29881512137243    2.52704842780873    2.95025276760407
H         6.56388406985085    1.35289689130788    1.51576343496784
H         5.50478294125617    0.17065173256499    4.13460413915722
H         7.23880034318723    0.42718749408545    3.80105665188952
H         6.62399449382185   -0.68650546271087    1.70393387031144
H         5.21823166112688   -1.08045714994696    2.36228528347822
