39
 energy: -54.521754174423 gnorm: 0.119037839084 xtb: 6.4.1 (79825abcba525fcdf90b791dcacef51065a7a4e7)
C         3.82493353748585   -1.12753208017644    0.28960608050753
C         2.68290109933345   -0.45826419159416    1.06121646843924
C         1.39786786451586   -1.20842484300909    0.67878537855000
O         0.21790966970049   -0.46864365519986    0.97718270911480
C        -0.29079080708450   -0.66059256101423    2.28171906463401
C         0.52633902197296   -0.32087223846385    3.51410435940609
N         0.57630665927352   -1.10396450077730    4.54286233047025
O         1.19651090806492    0.82614178873123    3.65200228941403
C         1.33505316172573    1.87705682110625    2.67687053329095
C         2.69617424426463    1.94338617621799    1.96251983930405
C         2.69113884238237    1.04522208760146    0.70054667974228
C         4.01007951995727    1.68207188886951    2.74744047290126
N         3.96874744758467    0.73351492596357    3.74301087418220
N         5.02357217892773    2.28098113206302    2.21989856729826
C         6.31198401756071    1.98680684660365    2.86482576595524
C         7.12525587193232    0.94797716164529    2.07532065886009
N         7.04039219526663    1.15616787214771    0.62806583326926
H         3.73697009284012   -2.21833131425228    0.26524594162254
H         4.74452956787730   -1.10031674694097    0.88423648294974
H         3.95010019408284   -0.81371425031353   -0.74469973286521
H         2.73897253005754   -0.54745018539110    2.15857665205137
H         1.51409046450264   -2.14808138438544    1.21411336618632
H         1.42885194341707   -1.46697170643299   -0.38723715356217
H        -0.68067043554929   -1.68495982424343    2.31831631698750
H        -1.12061253413387    0.04543579576610    2.32474614939577
H         0.00582375785662   -1.95645711997558    4.43569306331035
H         1.19479411194784    2.85587300990539    3.15789293429236
H         0.63091955944325    1.81045085751274    1.84584807237397
H         2.74333600884158    2.94947143400338    1.50849998217979
H         3.62142937795663    1.23518626214498    0.14783122616943
H         1.83793284167535    1.24290717300300    0.03514905666631
H         3.02890238781493    0.69348772452153    4.13577764225750
H         4.85011478284564    0.61633240316504    4.22769570311021
H         6.21716878574970    1.68043579146735    3.91353110987164
H         6.86702482079513    2.93279325735334    2.87358597070657
H         6.53730037213684    0.03245751801748    2.20469859306773
H         8.13271202887255    0.94004461989708    2.50365659323280
H         6.95421010050438    2.15839718183351    0.44236734385013
H         6.22750135262759    0.71105490291822    0.20913844296090
