39
 energy: -54.522085698172 gnorm: 0.106295782138 xtb: 6.4.1 (79825abcba525fcdf90b791dcacef51065a7a4e7)
C         2.68873324374130   -2.60137705968522    1.37546453475903
C         2.05805329006722   -1.20789487280419    1.46485343290960
C         0.67418353195944   -1.24122542605858    0.79844625512557
O         0.06436914623393    0.04297704315684    0.88544601409876
C        -0.38330301405359    0.34003740895862    2.19264931233212
C         0.63862762965258    0.54573352140857    3.29502470161374
N         0.53421676250877   -0.12283304175891    4.39783491783529
O         1.71193206244867    1.32935694821059    3.16183557949481
C         1.99779256995279    1.93844945793815    1.88834100690721
C         3.17091154733198    1.19801692292660    1.22283469518059
C         2.83911236175802   -0.18462481317369    0.60841507813136
C         4.34515723932439    1.00602908663997    2.22034176950801
N         4.13491670232577    0.74446880637460    3.55451349769520
N         5.47789805073439    0.96604811142840    1.60433861834851
C         6.78033406067991    0.84633928253116    2.27650294664502
C         7.20523641117510    2.20839473629333    2.84935498653678
N         6.90982917036844    3.39768418011483    2.04722225391878
H         2.14535345427436   -3.39597352155198    1.89654880687210
H         3.73560173244885   -2.69355440956125    1.68458028939630
H         2.70631690775359   -2.88317051227646    0.32464575656585
H         2.15022956581491   -0.95586795644139    2.53409778440415
H        -0.01270987819916   -1.95946945396401    1.24042037654791
H         0.81618833227305   -1.63601510495028   -0.21554895236380
H        -1.03389109515610   -0.44533600217852    2.59588317495827
H        -0.92973773091626    1.27643439718066    2.07645439631267
H        -0.23324883166596   -0.81140527296128    4.37450017469632
H         2.21306810382153    3.01672281441991    1.89926363207162
H         1.14975019918061    1.82772234305207    1.21054865734459
H         3.57873343298392    1.84144364062702    0.42267897659584
H         3.80496009817623   -0.61769275626430    0.31411668126975
H         2.31754971998444   -0.04729874032014   -0.35018172611951
H         3.20736204978267    0.61454415037580    3.95692942995233
H         5.01530114989922    0.44864920914690    3.95808938352280
H         7.48034935190085    0.60284069796221    1.46821891313036
H         6.88829779369437    0.08256653526369    3.05626722794710
H         8.30011756407554    2.19854053759108    2.89112447272741
H         6.77592859586966    2.29745401328693    3.85248296830405
H         5.92814147210923    3.67834133358501    2.10963776109792
H         7.03116045085126    3.33536533706397    1.03934710468244
