39
 energy: -54.523244856431 gnorm: 0.102214971304 xtb: 6.4.1 (79825abcba525fcdf90b791dcacef51065a7a4e7)
C         3.55984297578220   -1.48743292483049    0.21126212485361
C         2.58730855890691   -0.53807679247698    0.91867989744621
C         1.20180513871715   -1.12818413157139    0.61460998009838
O         0.05016132527601   -0.38904355742718    1.00958623196649
C        -0.31102884208286   -0.40123937260975    2.37590559513817
C         0.87385723883843   -0.22837492295343    3.30759624719319
N         1.43900890374703   -1.11340223633515    4.06350860244524
O         1.28772300475431    1.02095562741993    3.53491917500766
C         1.40238627031735    1.98644345397242    2.47228852031792
C         2.72434427213079    2.02435573563933    1.68594458472874
C         2.83938076986096    0.94871498065387    0.57731305952530
C         3.96322071385202    1.95414767896710    2.61921228549980
N         3.80535022072851    1.56780919514298    3.93010836581081
N         5.02798496946816    2.35053834378405    2.00821996310281
C         6.32647038195345    2.23741813583918    2.68911210532901
C         7.04044426160456    1.06211734017641    2.00150329412530
N         6.38380726300599   -0.23259920149138    2.19548441389550
H         3.27337125557417   -2.52475855582297    0.41142065577224
H         4.59531078945158   -1.25572768090651    0.48347882150954
H         3.31256024534538   -1.36550667538025   -0.84131665025468
H         2.88227295705965   -0.54778734864658    1.98084712239270
H         1.18671465944853   -2.10537548258176    1.09200656036273
H         1.04845262597551   -1.36486003728208   -0.44589840916890
H        -0.87269333830754   -1.31260910578860    2.61383833716468
H        -1.02115893449615    0.41996557830736    2.47724241802416
H         1.02909751659991   -2.05285886616126    3.94916893928978
H         1.39296093804444    2.95109281079356    3.00001863006935
H         0.57990125963988    1.94149824968619    1.75651121818738
H         2.85132210553316    3.02087932002149    1.22618032519280
H         3.89952119352125    0.98467360589427    0.29125276904123
H         2.19093968158515    1.18758578634770   -0.27840812578187
H         2.92466449105957    1.17946352568893    4.26590133423913
H         4.56946402724896    1.16406478374861    4.45791517956375
H         6.15604633073640    2.10527815783593    3.76434729682660
H         7.02323064134174    3.06526537973064    2.50958104949068
H         8.08656738837318    1.15112849077286    2.31504747778061
H         6.99685249728329    1.24393193888733    0.92282553098723
H         6.78079678186229   -0.64057722880424    3.04538330368298
H         6.72528664885547   -0.81437407869228    1.43433590166388
