39
 energy: -54.522628907555 gnorm: 0.097812512566 xtb: 6.4.1 (79825abcba525fcdf90b791dcacef51065a7a4e7)
C         3.01558342534254   -2.51318564162211    0.86889138340803
C         2.40187003037964   -1.19577997975578    1.35400825365191
C         0.88904789955887   -1.45182323522550    1.27580340818210
O         0.11503707977934   -0.26767713185396    1.11050439384577
C        -0.49376656127235    0.27311123031230    2.26564149650393
C         0.39106067402404    0.68078458657293    3.42872694136768
N         0.13534595464864    0.70611840150704    4.69681265502376
O         1.59177959373575    1.16836789169413    3.10573473736202
C         1.94815517161569    1.81755970543455    1.87040290952243
C         3.18194585143590    1.19964850636857    1.18974634368337
C         2.90494998554832   -0.09721126303724    0.38929126164488
C         4.43386515522296    0.90990235915187    2.06122657984458
N         4.27000909284026    0.79648446043686    3.42244537186754
N         5.53280443916403    0.86169572716333    1.38730622921949
C         6.78783784723734    0.77496173734348    2.14878045848086
C         6.92736528740017    2.03123820891849    3.02410785244540
N         6.81133324216041    3.22092141587800    2.17777329994135
H         2.62345742198331   -3.41241356126619    1.35448411256052
H         4.10344116254601   -2.50893064201345    0.99746154717918
H         2.69783943001141   -2.58359403493676   -0.16938519482205
H         2.73061151662034   -0.93772714248702    2.37412358168197
H         0.51029345732496   -2.15555892106265    2.01359695124129
H         0.70452825052613   -1.84205053527111    0.26690019785793
H        -1.23422392508023   -0.46823136484007    2.58938185299717
H        -1.10274096121514    1.12074865434213    1.95005880834999
H        -0.77112767890920    0.33944623353007    5.02474057821092
H         2.15063317508255    2.81579820081903    2.28472022491533
H         1.21957491169492    1.98011562927785    1.07442227771731
H         3.56269719716813    1.91972221205526    0.44336301981540
H         3.87385165691185   -0.37083256789674   -0.05046112980995
H         2.23695473155948   -0.00323818842432   -0.47946949892604
H         3.31548335851986    0.99743956299266    3.71854383472879
H         5.02044273506814    0.53422257000571    4.04976310188855
H         7.66386064039028    0.75072607046536    1.48951363770506
H         6.89770965505137   -0.09979628437198    2.80128632100463
H         7.91127990587708    2.02538842817606    3.50627414829207
H         6.17121040637247    2.17030670934424    3.80346159113455
H         5.83424227580607    3.49711727241161    2.05374119409606
H         7.14880484594081    3.04933848049655    1.23379795683616
