39
 energy: -54.523930998412 gnorm: 0.112260320277 xtb: 6.4.1 (79825abcba525fcdf90b791dcacef51065a7a4e7)
C         2.79504679675327   -2.47024615989454    1.00130513035940
C         2.06593354585927   -1.17551863933532    1.37495562426488
C         0.73033954863398   -1.06513268282698    0.62375088281470
O         0.10130231338345    0.18020276921384    0.91023000760592
C        -0.67466960122908    0.15338258603033    2.09115504610357
C         0.23918688761009    0.19158614768521    3.30164725936687
N        -0.00133358252684   -0.46425634170003    4.39072657629144
O         1.37603693329680    0.89148750371036    3.34034414774142
C         1.89390011860815    1.78463245652159    2.33604931381700
C         3.15124526810627    1.25153436103163    1.62736274142341
C         2.96672831727821   -0.05221645514275    0.81158851649363
C         4.31648560525922    1.09505853531631    2.64149431636472
N         4.03946712653351    0.83514044150244    3.96373951370071
N         5.43743647232973    1.18297772388931    2.00911830076416
C         6.76168013989364    1.17199696162246    2.64844040420566
C         7.38417548664217    2.52626706182311    2.27114931923158
N         7.80296307475526    2.74873972572124    0.88543123519924
H         2.26233357658625   -3.31740763604277    1.44482289760151
H         3.84718680901288   -2.40959675410674    1.30014604185919
H         2.67932262576894   -2.55476507616411   -0.07730569277928
H         1.93086637680712   -1.02599706262819    2.45879032806420
H         0.06081605688070   -1.88412111147554    0.87680109297586
H         0.96388736069921   -1.05245550650622   -0.44839893997923
H        -1.32960638757993   -0.72444279797834    2.14731715565023
H        -1.24430615825756    1.08162310503576    2.03809659307995
H        -0.85701801818490   -1.03988484170149    4.40237283019063
H         2.09151352164978    2.72867916353582    2.86412225070697
H         1.12948319862382    1.89972383399924    1.56581587216533
H         3.59778738149928    1.93354861051185    0.88169358510974
H         3.98764834255896   -0.39083999565915    0.58780820878578
H         2.55049684595296    0.20487678993557   -0.17352482025799
H         3.09955745698057    1.07638439348501    4.27606593617545
H         4.84734195757542    0.95826295609724    4.56176844078219
H         7.39111608200919    0.38589315337376    2.21428924109877
H         6.87392125632981    1.08503522242744    3.73604184274847
H         8.26119252270730    2.56727546288114    2.92671469588291
H         6.65704004128633    3.29508868096385    2.55166645768673
H         7.07577901289597    2.51581657012462    0.20475141806551
H         8.73343408394398    2.34359110938103    0.81838248644727
