39
 energy: -54.529366676915 gnorm: 0.110468366120 xtb: 6.4.1 (79825abcba525fcdf90b791dcacef51065a7a4e7)
C         3.69622655981731   -1.46730930647694    0.56698863032575
C         2.61266255766635   -0.54390128371259    1.13333381276614
C         1.23385781331874   -1.10726557474975    0.75673971626262
O         0.15485175712346   -0.21069484749334    1.00275879759183
C        -0.45912866821217   -0.56782998118061    2.22460912610553
C         0.54160075192451   -0.46256146192649    3.36010187805516
N         0.77217258702160   -1.33438752408669    4.28791068818918
O         1.15775948230319    0.70720787567041    3.54924607046022
C         1.29739433020616    1.75880468160972    2.57500555426379
C         2.66952023532872    1.80174544662395    1.88018639666245
C         2.78809282158494    0.90496097725975    0.62280083031474
C         3.90030796582611    1.68084862922361    2.81895052681707
N         3.68762850321729    1.65951511864330    4.17797273070828
N         5.03728418516405    1.59554143062306    2.21548734365918
C         6.38046183049383    1.53463506168313    2.81100296152069
C         7.36947913531286    1.02028238289160    1.75214385205913
N         7.35851058743650    1.84196417208758    0.53978645074455
H         3.46245248020952   -2.53110738396837    0.67587978324350
H         4.63103626808619   -1.34764418452919    1.12537372795455
H         3.98961931069558   -1.28407388403214   -0.46465196242837
H         2.68130700702448   -0.47954310608996    2.23171602704253
H         1.03443570334809   -2.09005302341402    1.17792591825254
H         1.27701901253885   -1.25296618086182   -0.33005326450310
H        -0.78113420250997   -1.61570416916545    2.25536487746955
H        -1.32046616464782    0.08173297040669    2.38302996588553
H         0.32891553645830   -2.23559576937250    4.05333330229304
H         1.07641253724827    2.59708246508780    3.25146226723006
H         0.51197265704107    1.75880300325991    1.81740962034575
H         2.69907899107544    2.86815632551665    1.59302803280346
H         3.83421201680002    1.02416737180146    0.30904025048312
H         2.11717535307884    1.26067935727069   -0.17289260575886
H         2.76976208498537    1.42748346446838    4.55593989148918
H         4.43283039227673    1.22754102191582    4.71044997946770
H         6.31645826708495    0.81845666171512    3.63902958158567
H         6.57711228488560    2.54973244089164    3.17698550421852
H         7.10666372355330    0.00564234498537    1.43270655784536
H         8.32241284800081    0.87541515620395    2.27121352726129
H         8.06757422112412    2.57784178798317    0.58547855430347
H         6.41247581249713    2.20540033586474    0.45405667295621
