39
 energy: -54.523133773747 gnorm: 0.108897406034 xtb: 6.4.1 (79825abcba525fcdf90b791dcacef51065a7a4e7)
C         3.36762900365855   -1.55921834789190   -0.12487254749805
C         2.58438705139429   -0.62025199641745    0.79839036614295
C         1.13743441085452   -1.12336625273622    0.68216197506051
O         0.03695121681119   -0.38068286125277    1.19789119031192
C        -0.25834015658272   -0.60550744104697    2.56159664800583
C         0.71153924175872   -0.18787754378302    3.65100190355956
N         0.67143134641443   -0.78016740515130    4.80063545530827
O         1.67225075658955    0.70621286425969    3.40316502351802
C         1.52390233408972    1.75866704644111    2.43114071397083
C         2.74276718258000    1.84695695666255    1.49630357947000
C         2.70502696072996    0.84394888408381    0.31653632636593
C         4.01194578898657    1.84776728939198    2.39068470616945
N         4.21629426231802    2.94718203561914    3.19203229666444
N         4.72996222645636    0.77764142535292    2.33200668529376
C         5.92139212556056    0.70291569293717    3.19071822645719
C         7.12432828823858    1.51448877733103    2.68259398681130
N         7.69475421712067    1.00468311144243    1.43367277851640
H         3.12997803350417   -2.60255239482979    0.10567036075820
H         4.44582657644061   -1.36564970639970   -0.12687736973829
H         3.06845144238002   -1.34064903975568   -1.14793514680168
H         2.84566726651572   -0.64382496414779    1.86912584906211
H         1.17082671442188   -2.11023137965837    1.13825443663081
H         0.99288818229493   -1.19623803575914   -0.40319815968839
H        -0.49099533411417   -1.66106762860208    2.74690190364291
H        -1.21867961494058   -0.10430742662972    2.68600780908874
H         0.02555271532400   -1.58389619126284    4.82388396120865
H         1.38374442742771    2.64843535187917    3.06185808934662
H         0.60107410725544    1.89231400471948    1.86424975775303
H         2.68670690542074    2.86387270018428    1.06816176440934
H         3.64471251439041    0.95012236040462   -0.24269482494976
H         1.92706057174958    1.06116492378793   -0.43004209640283
H         3.41890677741254    3.53732610018369    3.42672318306383
H         4.86619552300231    2.75597083117788    3.94471159596456
H         6.31028206093226   -0.31779189174806    3.09295988372720
H         5.50102997126663    0.85332759792840    4.19257112758739
H         7.85594036085602    1.53599017896438    3.49800063240756
H         6.78873464880657    2.53044973813651    2.45085547222562
H         6.99030216812171    1.16393296509196    0.70926842604926
H         7.79370874966090    0.00689066534758    1.60407075685327
