39
 energy: -54.527775592791 gnorm: 0.111943258554 xtb: 6.4.1 (79825abcba525fcdf90b791dcacef51065a7a4e7)
C         3.34834652915150   -1.65066184027698    0.07190342720826
C         2.42587244888816   -0.71116511875052    0.85543877648579
C         0.95423310797253   -1.09425799805646    0.63675537516364
O         0.08805989926573   -0.11777536132437    1.20670638145934
C        -0.35802810304503   -0.48749253101618    2.49579535933390
C         0.71640995608125   -0.36652747606677    3.56014254531669
N         0.96660165488663   -1.36042833698697    4.34985036111517
O         1.40197115172935    0.76733280744902    3.72793441969391
C         1.44306984670089    1.74358359443547    2.66975503187584
C         2.69704928943113    1.75613525959138    1.77828147309754
C         2.63349143961561    0.79349142813446    0.56643265872569
C         4.00486459778648    1.66242675824821    2.60988861683686
N         3.81054186926450    2.05097408171086    3.91522333365793
N         5.09789805746247    1.31104231303657    2.02169909076947
C         6.28023673673733    1.23045196167639    2.89236269157626
C         7.40300821216510    0.99973563278551    1.86764286052919
N         7.59097944125002    2.22910504651292    1.09407359397084
H         3.15914468272961   -2.70109768201908    0.31472260120483
H         4.37805485422917   -1.48585608122847    0.40734741770432
H         3.25571410904351   -1.46843658290162   -0.99681076467347
H         2.76472974500390   -0.96250777510586    1.87391808793897
H         0.74623521166393   -2.10055098820499    0.99333558996234
H         0.80493229335047   -1.02275885933273   -0.44805229044143
H        -0.64039869689635   -1.54531478189831    2.43292466799442
H        -1.25167652741383    0.08192759623488    2.75286477613131
H         0.36686711999031   -2.19939738926597    4.33848910639016
H         1.47524569384213    2.78757701395710    3.01352638808790
H         0.54305444860650    1.59377832408411    2.07111534175422
H         2.72791174603125    2.76508630142565    1.32924794989589
H         3.63291907501146    0.91745635177813    0.12734459092363
H         1.84188514826036    1.13357618626704   -0.11730390980661
H         3.03426617332228    1.54426061625938    4.33926832416130
H         4.60257641053699    1.90011000940049    4.52790663097340
H         6.20418097658548    0.34907091786891    3.54045144138411
H         6.42959049219612    2.10506272779068    3.53717800075038
H         7.10640271753688    0.25661870511651    1.11903819211844
H         8.32155371880879    0.71899652433441    2.39296391735142
H         7.96383889498117    2.93945442086052    1.72870298676782
H         6.68019126980476    2.61512841706000    0.85770925517235
