39
 energy: -54.521890063670 gnorm: 0.115691604846 xtb: 6.4.1 (79825abcba525fcdf90b791dcacef51065a7a4e7)
C         3.59680609767882   -1.35454401732832    0.52633258680542
C         2.40576528885417   -0.49124767034690    0.95491321845788
C         1.08286262183774   -1.02829823396337    0.38763009977184
O         0.00479230886058   -0.27275093767193    0.93125789861853
C        -0.36841419507766   -0.63548722837923    2.24524988170302
C         0.73897111616216   -0.51251679494673    3.27503654101149
N         1.10713082943400   -1.45163459733862    4.08533856081323
O         1.27880907070637    0.66123392542705    3.61366845119435
C         1.35442403200010    1.85312989957255    2.80858171867495
C         2.68095063921974    1.97346635858276    2.03839125392815
C         2.62699601619419    1.03208165191300    0.80949580963513
C         3.96020143626361    1.67836655217545    2.86734606123398
N         3.81661188473873    1.74336403055351    4.23401588289071
N         5.04976515327521    1.69203585346690    2.17682153787461
C         6.37365126387262    1.70859539150231    2.81676370200202
C         7.40615702764766    0.97024833819323    1.94919699514673
N         7.28553037062914    1.24020733295612    0.51474131890967
H         3.52382474081126   -2.39380919432467    0.86215331149532
H         4.60355455814655   -1.07921831690752    0.85895269083709
H         3.61071977845628   -1.43731752831682   -0.55851384776687
H         2.30374549082613   -0.67136241626324    2.03770966390811
H         0.97457790340026   -2.10470782571504    0.50012435678336
H         1.00273602070249   -0.80640448215844   -0.68407574312353
H        -0.68723488589167   -1.68456527540314    2.26675292771943
H        -1.22139347699254    0.01457891723481    2.44215542068020
H         0.50235788128667   -2.28381493343066    4.01181835019927
H         1.34664016480979    2.52858165062647    3.67624560692844
H         0.44815196685558    1.85263231657523    2.20070880188961
H         2.81422458291509    3.02150451601552    1.71525064012037
H         3.62628180952421    1.30686184978559    0.44487960540355
H         1.96996108250602    1.51300156578305    0.07002641466954
H         2.91906250532325    1.43174105300508    4.60343822206003
H         4.56191276530533    1.22376485732758    4.68123260785912
H         6.36724993223161    1.34544855136573    3.85151943642212
H         6.72868069931185    2.73394190222628    2.97693841822607
H         7.31494514644886   -0.11900331841088    2.02547117111623
H         8.40836296228739    1.17277427016543    2.34043734475276
H         7.33746283966069    2.24415471569823    0.32561823447111
H         6.31158628214403    1.02510744394072    0.31578859668487
