39
 energy: -54.524033460676 gnorm: 0.118731943966 xtb: 6.4.1 (79825abcba525fcdf90b791dcacef51065a7a4e7)
C         3.24777446048071   -1.96581844472623    0.26654225276717
C         2.40003496084940   -0.85885707232418    0.90177010578904
C         0.90767091346543   -1.08405780603561    0.61464797075501
O         0.13017637381399    0.00388564998207    1.10505575462304
C        -0.25056676958510   -0.10331496031815    2.46188233648047
C         0.82973749511908    0.23728570350880    3.47124773516257
N         1.21533115581940   -0.58880441441781    4.38937947674191
O         1.37209779499175    1.45517666665039    3.55108712117163
C         1.58764900125610    2.10398459729803    2.28337884383536
C         2.85757397558087    1.63273530615399    1.55361055598735
C         2.76763070671133    0.56775511775247    0.43243808771529
C         4.02291298084514    1.37488765913122    2.54670280838486
N         4.24867209328566    0.14657580383700    3.12368797091955
N         4.88362054886108    2.31567729596069    2.35110766472556
C         6.12257012347310    2.32274341936551    3.14321162704590
C         7.20904792621476    1.77815171737060    2.20146728752258
N         7.01549063765686    0.36687720909068    1.86098001248857
H         2.93844461075587   -2.91420717241100    0.71715052513519
H         4.31132100521289   -1.78775414748051    0.45927184822921
H         3.00750713832929   -2.01202404783084   -0.79368106838438
H         2.47427340386509   -0.97645387640750    1.99536836537154
H         0.55364575217034   -2.01868117976329    1.04381401497499
H         0.65312067966353   -1.07626031378163   -0.45275725097961
H        -0.57115935198444   -1.15056708631688    2.51807104732065
H        -1.06070930960055    0.60751726081477    2.62716419911851
H         0.61867780620381   -1.42385737800831    4.49121754876006
H         1.50087142644325    3.15801748574982    2.58441140069942
H         0.78465718112397    2.01584341322174    1.54970719857172
H         3.19507166989271    2.57278121261549    1.08140846718298
H         3.76930062929112    0.57879419434266   -0.01873453378569
H         2.02788441546052    0.82421102150875   -0.34009000431447
H         3.49970262815030   -0.20005669791922    3.72207521220842
H         5.10259176019010    0.02681655654738    3.65466671639026
H         6.15509197830092    1.70367039313563    4.04782589083119
H         6.28843208746719    3.36801991678695    3.43117720749283
H         8.21146710885448    1.82488619291287    2.64144252179545
H         7.23041457181188    2.34535147865918    1.26534208021000
H         6.03837723530772    0.32713119887868    1.56090581259614
H         7.26875290708121   -0.23431577190153    2.64126358818524
