39
 energy: -54.522257319418 gnorm: 0.112792574189 xtb: 6.4.1 (79825abcba525fcdf90b791dcacef51065a7a4e7)
C         3.56716192919933   -1.65159348353653    0.95384532071970
C         2.43269390668994   -0.62945824292039    1.07939222976010
C         1.04543330124298   -1.09819655889048    0.61452952255409
O        -0.11297564010778   -0.33370500224752    0.93431052597287
C        -0.56793493277532   -0.38314696969049    2.27147289408798
C         0.35006118966558    0.02268764945256    3.40921889868934
N         0.40207166246249   -0.51017794642617    4.58710785711221
O         1.03418006267197    1.16975717614783    3.40972691307024
C         1.44515674994211    1.92526838335773    2.25439177716843
C         2.87926999986674    1.80608809642743    1.70990824484666
C         2.88033337991204    0.75936925785519    0.56812066863300
C         4.03964012891137    1.40811284206943    2.66169048892102
N         3.81393329277030    0.85627751051342    3.90151435514619
N         5.16792447624333    1.52739491589941    2.04776353200030
C         6.38228994584921    1.16146566194406    2.79199934391930
C         7.53599539101735    1.92653202495978    2.12301971518861
N         7.91301706879214    1.28520127309349    0.86141705683904
H         3.45538664636504   -2.54152566951942    1.58130124666221
H         4.49058315223971   -1.16840274775907    1.29119203288449
H         3.62534663806762   -1.99184568645995   -0.07803636544173
H         2.26846195558468   -0.43282997244585    2.15161548481752
H         0.99248142888088   -2.13969380750672    0.92358896330359
H         0.93849078642743   -1.15949849572324   -0.47589053341909
H        -0.89684577193632   -1.39520146418385    2.53649580230148
H        -1.47932136202598    0.21541346750707    2.26584722732320
H        -0.27289366402391   -1.27202070451114    4.75353225551122
H         1.34072962947004    2.98463300850994    2.53003257946056
H         0.78360194207056    1.64203422408255    1.43404888767197
H         2.99501044716236    2.80770035920783    1.25830796964970
H         3.85930995690152    0.68833296423288    0.07458248748075
H         2.19124064350915    1.13007183514391   -0.20487653011241
H         2.90160533402102    0.89166185594123    4.35492616376672
H         4.58006115141687    0.69320904130877    4.54332138463791
H         6.52465742329500    0.09505285660586    2.57955810449205
H         6.47025890360600    1.35176507896243    3.86860740138564
H         8.40256925202577    2.04075262707731    2.78378437283054
H         7.16954943320377    2.91896006759597    1.84140571199496
H         7.29228829580910    1.45585800036746    0.06646615078753
H         8.05608750410629    0.29768535436611    1.05829366005556
