39
 energy: -54.528412281616 gnorm: 0.124418884727 xtb: 6.4.1 (79825abcba525fcdf90b791dcacef51065a7a4e7)
C         3.29888821137281   -0.51149467852090   -0.78626524857341
C         2.37439359264418   -0.11439735232110    0.36922754056469
C         1.00311923867177   -0.80663125870784    0.34232376594655
O         0.13465021655601   -0.20816370809706    1.29951584287542
C         0.17214826199553   -0.82497610938921    2.57056739653821
C         1.52342592750902   -0.69989050860358    3.24901187397516
N         2.13785219155171   -1.68791142689971    3.81502273332853
O         2.04608843672117    0.47166121747100    3.62060020946502
C         1.59681571192249    1.63608009194260    2.90172535967031
C         2.49958691381916    2.13442037258273    1.75979355256739
C         2.19803848522631    1.42088728253410    0.41843625604107
C         3.98246207347488    2.04200417645300    2.21065176349009
N         4.48181184274206    2.84132939858245    3.21282842091520
N         4.63470645648662    1.17287059985598    1.51542216998638
C         6.03804388184954    0.83715721281511    1.79899798412189
C         6.25492259107139    0.10157902075648    3.13158376822753
N         6.39434725055628    0.96258196721190    4.30815779026136
H         3.59970133114125   -1.55872308601702   -0.68139351906085
H         4.22350102160547    0.07287978307800   -0.72642809091138
H         2.94964919817398   -0.36152843082518   -1.80581371205075
H         2.81299552652574   -0.34539737900956    1.35389238103461
H         1.24869974599569   -1.84623931172880    0.54712482504584
H         0.45706658370705   -0.71153947787102   -0.60477421324668
H        -0.13465670668954   -1.87558899672283    2.50159589078961
H        -0.46700208594284   -0.24403788434264    3.23609658115453
H         1.69356746843090   -2.59857725342110    3.62272477485820
H         1.65377793389051    2.44269484958599    3.64688590573744
H         0.60642934572692    1.53545855072707    2.45468064560251
H         2.12283124790994    3.16305303822817    1.61649034371309
H         2.89518910054132    1.90620908722375   -0.27831693139417
H         1.17626655280338    1.70455877937981    0.12636354726226
H         3.83081075058207    3.04732781168107    3.96975567693456
H         5.28458974306821    2.38083084627222    3.62386155290270
H         6.71311993935468    1.66576475163366    1.55340094562324
H         6.09064554838554    0.06668757830539    1.02012255589873
H         7.09650378094888   -0.57189105489806    2.93464293769783
H         5.35457067377810   -0.48445726577343    3.34236896347586
H         7.34939518228998    1.18391536116980    4.60016780096129
H         6.00885125219963    0.47227364771016    5.11153056935723
