39
 energy: -54.520392662730 gnorm: 0.112140710625 xtb: 6.4.1 (79825abcba525fcdf90b791dcacef51065a7a4e7)
C         3.16013601210144   -1.79651572383539    0.08652024770007
C         2.33638783595051   -0.89091977995201    1.00786443863658
C         0.86388299152157   -1.25382667516092    0.76223660539097
O        -0.05774049333888   -0.24384955413830    1.16120389162312
C        -0.37502893359014   -0.29563197157370    2.53746052552179
C         0.80098687197444   -0.22566400849998    3.49348142097039
N         1.26471951468834   -1.27954918930584    4.08369436382221
O         1.34108449188080    0.97276035979467    3.72983079084915
C         1.45417667670698    1.83909557335395    2.58476669199128
C         2.68563285131715    1.61012771052932    1.69121394616256
C         2.47892083172665    0.57995979799318    0.55309070314295
C         3.99616337907677    1.51427235978268    2.51828956995534
N         4.21421267936965    0.56852162425840    3.49329679767239
N         4.81898511859456    2.44245036812181    2.16387446738020
C         6.17409558865854    2.48855648782124    2.73310595338694
C         7.17067388344896    1.34740831662068    2.47136357981437
N         7.99627427852078    1.44579445112102    1.26562899312552
H         2.98579105268104   -2.81874528870498    0.43698352290860
H         4.21144791686750   -1.50619433955778    0.18869471997945
H         2.70080706356015   -1.63909819594340   -0.88722175167275
H         2.63112890483383   -1.01088619771535    2.06334218665404
H         0.62243207018345   -2.13261424024584    1.35593015913499
H         0.68602184048807   -1.30520833973329   -0.31939913438279
H        -0.98601948789244   -1.18213738024853    2.74596112253074
H        -1.04917821215915    0.55442606279412    2.64634380300152
H         0.57914469940380   -2.04468872712169    4.17440448813463
H         1.62062305249105    2.76597913784151    3.15249792913109
H         0.60211524307729    2.02806191490383    1.92969276369636
H         2.83225261698110    2.55910041612193    1.14484478370945
H         3.28866695055785    0.71094373976070   -0.17778251386644
H         1.57952421001181    0.95772817906894    0.04498575623859
H         3.53101097414329    0.17325242222447    4.13841253393349
H         5.12289129149120    0.75778351664428    3.89819508308885
H         6.07191748494968    2.62224645573410    3.81676764977354
H         6.66380395218304    3.40525770904151    2.38256079817758
H         6.75882356652111    0.33593721405903    2.56031330355336
H         7.95812625933375    1.38820420406530    3.23080874091384
H         8.68313706356754    2.20225922493743    1.31416176786903
H         7.38921584322870    1.64588409522231    0.47451495266834
