39
 energy: -54.526435279656 gnorm: 0.108578787483 xtb: 6.4.1 (79825abcba525fcdf90b791dcacef51065a7a4e7)
C         3.44563383335694   -1.44851650990379    0.29250769548178
C         2.35743346617638   -0.51080567362574    0.82547910330650
C         0.92408423176340   -0.98287537307042    0.53744244957694
O        -0.11548493096876   -0.20846483455901    1.12752955108645
C        -0.34239985391099   -0.32224400382150    2.51785311008286
C         0.80105514454503   -0.12014083908712    3.49435175439407
N         1.10857395465093   -1.02450742514221    4.36706391256153
O         1.49410908115784    1.01765215888301    3.58864255690388
C         1.40868517335153    1.97874470431464    2.51929592902969
C         2.70384221997187    1.88271108636693    1.69425481399562
C         2.53757586589700    0.97775510764525    0.44817676811760
C         4.08053244876611    1.55679563759760    2.33397014793743
N         4.23881133588029    0.65608887897216    3.36173673131226
N         5.00143981907361    2.30311484157254    1.82495410876237
C         6.42050603871751    2.39046727770492    2.20058057253936
C         7.22603538926648    1.10858355718919    1.93263821286791
N         6.90916676626169    0.13744056249766    2.98219397613977
H         3.43154971017650   -2.41318797741850    0.80960009373976
H         4.32235277705431   -0.84280114284956    0.54638884352103
H         3.43665541254569   -1.64978983526127   -0.77676554884640
H         2.43153855252060   -0.53993268987190    1.92500517028742
H         0.78759802910382   -2.04557459628894    0.72473910027651
H         0.72794035285830   -0.97589087554009   -0.54222848531101
H        -0.71436334968421   -1.33410676728225    2.71897669925581
H        -1.12680691077694    0.38538737923115    2.78784361421753
H         0.51397633117620   -1.86602941058630    4.32263329123282
H         1.34478830435297    2.95934858368318    3.01272221809594
H         0.49136781087084    1.81135960993440    1.95241861199487
H         2.85329202833252    2.86704691304078    1.21538787915138
H         3.42666167347461    1.11274923580793   -0.18295257228331
H         1.71960142413122    1.30742993874981   -0.20911021719306
H         3.43076764790864    0.45961372454855    3.95134638010151
H         5.18488349366769    0.59678823194246    3.71795351527627
H         6.57100246984565    2.57811263895596    3.27052266411233
H         6.73177514930753    3.20236675410047    1.53202384508582
H         8.29560070734600    1.30271818018987    2.07029107059066
H         6.98686316562380    0.61424385577032    0.98557569842745
H         7.25811813921590    0.54290871993093    3.85409040542378
H         7.17278987891693   -0.84184560588067    2.90526096081947
