39
 energy: -54.523776034069 gnorm: 0.116359858242 xtb: 6.4.1 (79825abcba525fcdf90b791dcacef51065a7a4e7)
C         3.51322012117124   -1.46374947347044    0.11527192711618
C         2.56134228097099   -0.63748409522233    0.98633696052286
C         1.12628415453030   -0.94183496519248    0.52995587876245
O         0.18959269138653   -0.01475382430964    1.07009307623752
C        -0.35353192864128   -0.49422440744460    2.28358362219442
C         0.67838776124454   -0.47296453070102    3.39559729842915
N         0.99570435479067   -1.48799344553153    4.13255031186794
O         1.39801329752082    0.60097944210891    3.73111311785106
C         1.43089576805555    1.77126609854103    2.89215767738116
C         2.68720153526990    1.82527776589055    2.00552039098167
C         2.78221139594985    0.87921581321726    0.78272021972396
C         4.09283479663617    1.74071217499799    2.65956660291554
N         4.09968980496463    0.63666009620275    3.48032910871038
N         4.96372397348309    2.62637090127325    2.31125531321184
C         6.38813051471341    2.63630167406166    2.67655248780761
C         7.12475807006482    1.31810659172211    2.38734997565411
N         6.58494700314214    0.66879541641948    1.19065003347364
H         3.33401494203852   -2.54306104663848    0.14912432283502
H         4.54755331486027   -1.26773913119555    0.41812113179768
H         3.58894239482153   -1.15260675750239   -0.92462863872695
H         2.71756811696090   -0.92814449681600    2.03819604840586
H         0.91403650404376   -1.96924657672157    0.81703510817708
H         1.06420170734910   -0.89368153171621   -0.56459314074042
H        -0.90317552290648   -1.42794659746187    2.11408853408066
H        -1.10363088230772    0.22507363898237    2.61357356725751
H         0.42361125184857   -2.32325690820162    3.93576591819025
H         1.52619093012717    2.49757817908054    3.71223443755029
H         0.49509635662048    1.86538158713438    2.33874955080286
H         2.67648420954702    2.84669961589555    1.58463042114987
H         3.82498441054012    1.07208595791315    0.49558471673486
H         2.04507473078695    1.13344981755039    0.00696994792162
H         3.20448064377099    0.20389662109790    3.70503552253924
H         4.81780372003383    0.53397081024941    4.18688895497098
H         6.41780818496264    2.74526963049141    3.76736927685260
H         6.80200683431211    3.55447205257064    2.24214845596506
H         6.97620840037999    0.60108284539336    3.20246743637253
H         8.17435701426244    1.61337808300869    2.28906820647808
H         7.30536998203365    0.06438257768433    0.78809479152839
H         6.33533204655539    1.42062684392362    0.55279494513945
