39
 energy: -54.517786847278 gnorm: 0.116823645916 xtb: 6.4.1 (79825abcba525fcdf90b791dcacef51065a7a4e7)
C         3.43472265735879   -2.07431288836327    0.88646885008719
C         2.50011503154598   -0.95083578308759    1.34673829258507
C         1.07295910211086   -1.45708105332043    1.08741874219895
O        -0.02650171086447   -0.55186554687304    1.10714983478614
C        -0.47083945204816    0.00223466452995    2.32902241220483
C         0.56179652157277    0.39267243175038    3.36974614945470
N         0.86159763672691   -0.32672654484949    4.40253733613330
O         1.31159123928878    1.48334833289405    3.19080100528094
C         1.48799570917294    2.15808321265888    1.93059759339713
C         2.80560252491699    1.67668610894169    1.29852464258785
C         2.62671778274778    0.34958501623088    0.51999829273033
C         4.05543858798639    1.43152512268662    2.18652155817930
N         4.05192878975622    1.49840857445169    3.56061883826415
N         5.04379339545193    1.04069788250992    1.45537933760460
C         6.20076120884614    0.49384610981288    2.17984692092547
C         6.99783291750851    1.59648276468472    2.89592347457525
N         7.77724044624774    2.47133191610498    2.01714329151878
H         3.37935115519959   -2.97036713772890    1.51272337486044
H         4.43324761812716   -1.63086421943954    0.96574072379121
H         3.09388998970017   -2.41171446716768   -0.09022460563331
H         2.60663380519421   -0.73302464378849    2.42214964304147
H         0.89329776582517   -2.35522379573743    1.67401875617631
H         1.03194760170975   -1.75532007298236    0.03215475651614
H        -1.10178994259587   -0.73677297231509    2.83739528514446
H        -1.03797750732833    0.90874173272415    2.11564286920589
H         0.19491616506040   -1.06358630212997    4.67867710670706
H         1.56819370260575    3.20530531665322    2.25622074293046
H         0.62820521170405    1.89726931287368    1.31126309142729
H         2.96830008856311    2.53219696769075    0.61867430750893
H         3.48629097056306    0.24404701460569   -0.15603195933702
H         1.73052611577752    0.54234855302623   -0.08784756803058
H         3.26422842203903    1.58212325509068    4.20225472044753
H         4.87140217130913    1.02391800362409    3.91948034312544
H         6.87026248253473    0.14458217209215    1.38459928731314
H         6.00016574747011   -0.37761110431774    2.81495407932943
H         7.79626721766863    1.04348241370098    3.40317076729141
H         6.50890296389290    2.25234529834335    3.62344965265315
H         7.14786055843097    2.99649181420099    1.40520954577693
H         8.51958919170672    1.94102394067460    1.56757791609564
