39
 energy: -54.528352900932 gnorm: 0.101068870570 xtb: 6.4.1 (79825abcba525fcdf90b791dcacef51065a7a4e7)
C         3.69857826304292   -1.30906026503328    0.32317689113054
C         2.51212656171778   -0.56068587910140    0.93946278670899
C         1.12533535361059   -1.10229601846325    0.56028795598028
O         0.12120562102189   -0.29620389729581    1.16902229609693
C        -0.15304847524931   -0.64795768546563    2.51010009342158
C         0.93970144333564   -0.40059827068989    3.53313263409463
N         1.40178464505626   -1.28671199306342    4.35493239215258
O         1.30625828365512    0.87452528759981    3.68637565395222
C         1.17735808667922    1.88896832482974    2.67208358418167
C         2.43250879025063    1.96723586993228    1.78561981447884
C         2.49111170101938    0.95147549725922    0.61767423108190
C         3.72366424710584    1.71377509515043    2.60988181791148
N         3.68928473939386    2.30485183441610    3.85168510615033
N         4.76427877075065    1.24794119507952    2.00632545171193
C         6.01934137106886    1.08320689379279    2.75476057238849
C         7.12474765019969    0.60726011861688    1.79797002460413
N         7.86342867832514    1.67230143535322    1.11596630581654
H         3.75205522154457   -2.31020968254051    0.76251048656532
H         4.64670988179190   -0.78492144641265    0.48537361237559
H         3.77534977002581   -1.50473905116680   -0.74441515541555
H         2.70785726875091   -0.66957220617427    2.01887502033687
H         0.91162520031946   -2.11811583154811    0.88505901440574
H         1.03743348997222   -1.10090115559878   -0.53355017202051
H        -0.44511053938175   -1.70251599124692    2.43743423053560
H        -1.01886884116714   -0.03107296677018    2.75246308609291
H         1.11805012742742   -2.26863118686269    4.21705895210096
H         0.94074014208503    2.77669777245261    3.27630594509846
H         0.28183103145951    1.68964906076273    2.08120124116040
H         2.43379018956858    2.98952736162472    1.36671139854554
H         3.42840999399401    1.11345196965150    0.06789539280690
H         1.71379486427168    1.15307094898816   -0.13394513382826
H         2.77829876147456    2.26847240576275    4.30770892855700
H         4.42241797316510    2.22107566982051    4.54519553207996
H         5.82763186185047    0.41302954015923    3.60136899677315
H         6.33114867361787    2.01825047183854    3.23591234459933
H         6.64570116672282   -0.06981219049018    1.08194342759083
H         7.79447203304228   -0.04079301405390    2.37242532435820
H         8.52846837459390    2.22748733231743    1.65990168024392
H         7.27321741221946    2.31360775241545    0.59175823321720
