39
 energy: -54.511823111003 gnorm: 0.121348690062 xtb: 6.4.1 (79825abcba525fcdf90b791dcacef51065a7a4e7)
C         3.52974104643279   -1.50569687744510   -0.04352962842831
C         2.65406825113717   -0.60354358067816    0.83217394951958
C         1.21690195825093   -0.99747603084468    0.45844248616154
O         0.17517956480492   -0.43325893830849    1.24907010418685
C         0.09661682697500   -0.83942095919854    2.60047528504566
C         0.72016739539935    0.08908749723205    3.62562956684212
N         0.95622225750803   -0.16769508320279    4.87158864630487
O         1.18584883953171    1.31413888257699    3.36838011925522
C         1.21962538547020    1.95610400824022    2.07948980778085
C         2.66523245522349    1.94471375800428    1.55276640534488
C         2.87083277022225    0.87841723135580    0.44821195729099
C         3.76719455485746    1.73109932469669    2.62551100104286
N         3.56677437372325    2.24618133328894    3.88533293464821
N         4.88661844384738    1.22297452315894    2.23453861469023
C         6.00793016708805    0.99067789398318    3.15712894933226
C         7.31450680574971    1.16307844826425    2.36527539000024
N         7.48811458050381    0.38997824911211    1.13350099435672
H         3.28309532807764   -2.57130522464433   -0.00088354482530
H         4.56609117649526   -1.38198271282807    0.28912042682782
H         3.38266155379311   -1.14915430905352   -1.06096850012174
H         2.80726448624454   -0.77500235092503    1.91033456277515
H         1.20446498406934   -2.06024299012347    0.68954824564602
H         0.92314114112566   -0.81157878002447   -0.58240203584879
H         0.28653981772300   -1.89351590470869    2.83603179952224
H        -0.95667901735785   -0.81682998122845    2.88152506194077
H         0.62595114818320   -1.11541996431834    5.10911381279933
H         0.97066918834659    2.96876450120876    2.42831042343808
H         0.56693274718259    1.45681128219179    1.36148012898920
H         2.76317358078328    2.90330226095519    1.01232085267507
H         3.94330792990276    0.93875193092770    0.21760842390980
H         2.17959209176069    1.12294651163617   -0.37165731282471
H         2.65210868215494    2.40366138782408    4.30695281910984
H         4.38720475432980    2.06356471231601    4.45013790704687
H         6.07922986176096   -0.06389477215521    3.44941115203832
H         5.96124688922131    1.61444756387079    4.05811140072800
H         8.00553334852306    0.73753696465997    3.10148412262877
H         7.36672288587230    2.22983359758538    2.12483946183381
H         7.23235519737220    1.01213119362674    0.36285988312414
H         6.87840436965797   -0.42406632410705    1.13495921631857
