39
 energy: -54.528643645762 gnorm: 0.103327106625 xtb: 6.4.1 (79825abcba525fcdf90b791dcacef51065a7a4e7)
C         3.06636928097313   -2.36221522596671    1.45272178100214
C         2.17145591800336   -1.11891785929697    1.48241879754736
C         0.73228701824307   -1.45888924633335    1.06586473589212
O        -0.07273667953908   -0.28536254607896    1.00763714749678
C        -0.63664239412272    0.15392604648515    2.22684654840559
C         0.44595997203982    0.42196940468055    3.25544243181769
N         0.28632123570993   -0.04803335210356    4.45030063688808
O         1.53733469573012    1.17829119132227    3.11168578603152
C         1.88513165733373    1.87915348693843    1.90241838929697
C         3.06451154348374    1.33086252096767    1.08035561778491
C         2.71516621434694   -0.06022052638910    0.49542304905903
C         4.28414461681381    1.23074443806079    2.03597275574254
N         4.16586439339815    1.33819970715310    3.40238856330119
N         5.36932908658998    1.09565532715594    1.35165875764582
C         6.71566532951619    0.79712039928363    1.86227624606967
C         7.38633401935950    1.75818625086290    2.85749101188165
N         7.45652844757099    3.17401315408354    2.48925379390332
H         2.61151871917682   -3.15977168998589    2.04869879887952
H         4.07280252740823   -2.17388634131225    1.84208947133848
H         3.12248640109255   -2.72898135841969    0.42984822485465
H         2.20607032198169   -0.73757999804926    2.51618898192404
H         0.19367773224127   -2.16579154278534    1.69294315291945
H         0.78946220746047   -1.81044618702645    0.02791037732884
H        -1.31316351302832   -0.62151588637226    2.60590165473198
H        -1.26688049675004    1.02648264362474    2.05255830832089
H        -0.60151392768283   -0.57182453024301    4.41757155689408
H         2.25691975066700    2.84681648906621    2.26921290899802
H         0.97074867393389    1.93413525936932    1.30935888055453
H         3.24910445663544    1.97572505138121    0.20249255688499
H         3.64858369721470   -0.44000597060772    0.05779757743850
H         1.90994431176376    0.12102607156428   -0.23159911824999
H         3.27608474301639    1.40348495811717    3.89554839930382
H         4.92728878639360    1.12564981847679    4.03525104150304
H         7.32421866775448    0.77579232742096    0.95022143380452
H         6.75486042788435   -0.21841939002263    2.27480500884574
H         8.41113837888716    1.40463765209991    3.01682066418821
H         6.94193320679890    1.72057925978531    3.85728905388296
H         6.50586535193361    3.38897714525161    2.17876219930564
H         8.06979124451813    3.41492800749873    1.71447252994243
