39
 energy: -54.517059327736 gnorm: 0.112256478517 xtb: 6.4.1 (79825abcba525fcdf90b791dcacef51065a7a4e7)
C         3.17240167666130   -0.90733137027492   -0.76082210816587
C         2.30693219856214   -0.26722800538830    0.32948537859833
C         0.84001995427687   -0.70560929871487    0.20183257336600
O         0.15601783069733   -0.21011396690748    1.34867344592404
C         0.43973019658441   -0.97235139211894    2.50450088860217
C         1.48629944236072   -0.36304657392741    3.41846207648679
N         2.35676909463150   -1.00942997510670    4.12453878031381
O         1.44538165221873    0.94680898942208    3.67612762029421
C         1.27567709974731    1.90526775507723    2.61449893903363
C         2.43554305445541    2.07646469575845    1.61813072036450
C         2.41892768805646    1.27444394189240    0.29306962336621
C         3.80981725001696    1.91427607689544    2.32225987062240
N         3.91130870508089    2.31354157461122    3.63485866044203
N         4.77911677145352    1.53151028686756    1.56192516717159
C         6.11518242111461    1.43869510147040    2.16920481484291
C         6.26954474860405    0.13992071688907    2.97744605162909
N         7.19368895964229    0.25357795328517    4.10799072199655
H         3.40653601162370   -1.97561707886980   -0.71477106762416
H         4.18432638878353   -0.50092958048296   -0.86488363554068
H         2.70929189684440   -0.75003812028801   -1.73279175597678
H         2.63837414075928   -0.57018816802706    1.33629165546476
H         0.72948128144181   -1.78744271336306    0.18048260833306
H         0.38545524604546   -0.28827680432637   -0.70558962222962
H         0.83023450766830   -1.98820274576306    2.36949645938910
H        -0.53943806433843   -0.94548260634284    2.98349886112734
H         2.43577171543715   -2.02474798529543    3.96154312778579
H         1.28843996522712    2.83770322142130    3.19719739748014
H         0.31951908410379    1.72243447367902    2.12137356369149
H         2.36246112523754    3.09340083547715    1.19261255992030
H         3.39165881291771    1.57792047200827   -0.11768259233093
H         1.52391265990756    1.70859823556549   -0.17624051999061
H         3.08435448115995    2.12825264270031    4.20141965379903
H         4.68651434238588    1.91325884555117    4.14894956174250
H         6.40817913033869    2.36883112321497    2.67083809929712
H         6.74557610871881    1.40919884419364    1.27211446800761
H         6.79933435954844   -0.55906988506341    2.32068000418636
H         5.33697273757628   -0.20063570251309    3.43878461747664
H         8.16872781580428    0.30117196933857    3.80236201069289
H         7.03082256080991   -0.57714867495722    4.67171498144120
