39
 energy: -54.517983130433 gnorm: 0.107187571057 xtb: 6.4.1 (79825abcba525fcdf90b791dcacef51065a7a4e7)
C         3.36454421032793   -1.42409401393341   -0.09824404943319
C         2.43891443021612   -0.65874339354093    0.85306458955001
C         0.98264637150166   -0.97741284512497    0.48152981596351
O         0.07331271470727   -0.10335949137773    1.14316533722103
C        -0.30211224221811   -0.45536424642972    2.45944207347025
C         0.75518164098469   -0.44784192225239    3.54754027781452
N         0.97547136098461   -1.48131340901345    4.29418770755537
O         1.57657445806749    0.60002287623509    3.65280489006292
C         1.37689681250443    1.70875600872037    2.75539861014462
C         2.61791127840553    1.81558191299555    1.85217192237815
C         2.57958412375543    0.86476039720258    0.62997315768614
C         4.00103182356633    1.70199690928345    2.54845392976872
N         4.18207006264705    0.78853147819051    3.56109164035908
N         4.94756158073549    2.47652774027634    2.13815707143610
C         6.27902061910348    2.50256370809230    2.76186662106450
C         7.19933311396884    1.27267643102389    2.69630202277344
N         7.19776405139651    0.86523630740456    1.28950359176312
H         3.38968936097093   -2.49407415957601    0.13128626022259
H         4.39949429913563   -1.08049950347993    0.00569812345435
H         3.01436864045471   -1.14587355827326   -1.09016505920047
H         2.57700988359405   -0.81257419163308    1.93591418761796
H         0.72794763909488   -2.01705368343038    0.67469722733103
H         0.75873374419305   -0.73654389587241   -0.56539703082202
H        -0.75719812558498   -1.45190161335799    2.40960321019914
H        -1.12811214655179    0.21297211112216    2.70435461166533
H         0.24944716733570   -2.20857906170403    4.20670509544144
H         1.37986340259933    2.54821514620168    3.46563509009495
H         0.48308031999240    1.65344746944734    2.13180269397281
H         2.54838439239973    2.84487495236499    1.45683957754465
H         3.55567698959196    1.06614708640643    0.16768821717860
H         1.68247095373283    1.25853012029245    0.13004591360802
H         3.37186076911853    0.24132676195895    3.84971689668837
H         5.11655651320414    0.40020594044167    3.59847953331698
H         6.18197654336052    2.75211013397457    3.82532563401391
H         6.71739614375990    3.33376968587699    2.19621580722103
H         7.06719291691687    0.37873571719436    3.31599186185884
H         8.19700256862316    1.55525393228997    3.04745457737214
H         8.01885928018674    0.25863671816293    1.22458491197259
H         7.29492156160926    1.72833178346104    0.76031189375343
