39
 energy: -54.519760538181 gnorm: 0.118752769870 xtb: 6.4.1 (79825abcba525fcdf90b791dcacef51065a7a4e7)
C         2.95590804672937   -2.37691875404648    1.16081758109986
C         2.28829667627352   -1.02388236791911    1.42751549845238
C         0.90277094083423   -1.09162919630835    0.76718698036700
O         0.09292514748872    0.07972247331894    0.74066207989999
C        -0.58558396560154    0.27270908311733    1.96533233216111
C         0.17728281399149    0.17142638925758    3.27287227591198
N        -0.13056975505084   -0.58166013130652    4.27893426679413
O         1.32615741179825    0.83571209374207    3.42320216548051
C         1.69415798761452    1.71706109659997    2.34510298532652
C         3.05146400901940    1.42351093341169    1.68261089056474
C         3.08006085428492    0.14846623842112    0.80355253778271
C         4.23485914352227    1.21181422772888    2.66520596859861
N         4.01842071661344    0.63120462517162    3.89348767394738
N         5.34876997764687    1.44542044256927    2.05792441888843
C         6.67980508844375    1.23279279234848    2.64581016958895
C         7.48776322928053    2.46670387138911    2.21157103887313
N         7.63136901849870    2.48457079202849    0.75412467803999
H         2.26560421261489   -3.19313904509617    1.39627247199798
H         3.82602314721389   -2.51593378614953    1.81163044234883
H         3.28340309836569   -2.48870915912608    0.12922331294699
H         2.39923911668871   -0.91796161218868    2.51919772430665
H         0.35459565424029   -1.90234540291768    1.24182499990644
H         1.12309779896796   -1.52266047684643   -0.21763718766781
H        -1.39583672993145   -0.46223687771093    2.04291248625750
H        -1.08161676398120    1.24370075912329    1.97295461976605
H        -1.06917806230306   -1.00221737214338    4.20260788570752
H         1.97989661677549    2.67487225462099    2.80345604085775
H         1.01886261230479    1.84408672839960    1.49735333870623
H         3.34812619953456    2.29695126391561    1.07461472485222
H         4.14251405731902   -0.12525853229137    0.74620114329280
H         2.76741724554507    0.40835304715716   -0.21845856259222
H         3.05224597456936    0.60700964916740    4.21767528438898
H         4.63467225720490    0.98166990120115    4.61658353880356
H         7.22508888524089    0.33702247083092    2.32503431204448
H         6.75804847893391    1.15877637553519    3.73733976201528
H         8.49511624071428    2.50241143787085    2.64118879126468
H         6.96715276633939    3.39668726551592    2.46176723477134
H         6.81812758981363    2.05541088951696    0.30597846537455
H         8.35669867324214    1.83195136522331    0.46706717252244
