39
 energy: -54.523020887785 gnorm: 0.106632491232 xtb: 6.4.1 (79825abcba525fcdf90b791dcacef51065a7a4e7)
C         2.83953671350769   -2.76977787737083    0.83674557091443
C         2.34723138343358   -1.38518418916106    1.27042282098470
C         0.81277831081739   -1.44563958683261    1.22455500357352
O         0.15449257862515   -0.18436854673255    1.15766873328772
C        -0.51715487806284    0.30749784470963    2.29976891589104
C         0.45481642027817    0.74098274260565    3.38108628114193
N         0.26922885647586    0.44835934304012    4.62768246269157
O         1.50865283810772    1.53021276363412    3.15673794918157
C         2.00324769584716    1.90975391949012    1.85834558569916
C         3.12153669086743    1.13001981358531    1.14504935795465
C         2.89483276269316   -0.21812862117226    0.41676272898446
C         4.36255301690411    1.01424873120073    2.07090472039260
N         4.20948463122945    0.71771943517957    3.40554681195214
N         5.47399558816734    1.03351533687812    1.41631758603942
C         6.72346773452849    0.91733733271724    2.18299658460838
C         7.06317075242062    2.10486133670916    3.09857570771187
N         6.96217091793182    3.34722479055121    2.32953485896746
H         2.40563762346716   -3.51670738752794    1.50905639081164
H         3.93201988772809   -2.79520688797890    0.91301304067561
H         2.50426241231593   -2.94296077969315   -0.18381097486079
H         2.81586609045051   -1.31211280773418    2.26558089756186
H         0.44463404034088   -1.96911260483357    2.10403437029678
H         0.58078244006631   -1.89843419837029    0.25225592962859
H        -1.28519426447102   -0.38092787625839    2.67240722886627
H        -1.11587876880048    1.14622386579856    1.94339855375285
H        -0.66124680246941    0.02295595335871    4.75778499637779
H         2.37175539087918    2.94494782375670    1.89972117541093
H         1.14704986452110    2.06293963587847    1.19933252605970
H         3.42081622798194    1.79918070202185    0.31847735854174
H         3.85537067167713   -0.60637034805447    0.05117209247903
H         2.25301093637942   -0.17731605923799   -0.47553370901704
H         3.25345619140301    0.74839021590327    3.75803165471097
H         4.95129169963122    0.32971207622827    3.97531172772061
H         7.47793177570746    1.02584815298871    1.39455161763728
H         6.85344467794902   -0.04957638818318    2.68421626552164
H         8.11093712735438    2.07492728781745    3.41778740953273
H         6.47694567019810    2.13376524743994    4.02270081852637
H         6.16286900417258    3.44015275847057    1.69798461211725
H         7.75505931646020    3.46163406010273    1.70291237102457
