39
 energy: -54.508825593938 gnorm: 0.117921032615 xtb: 6.4.1 (79825abcba525fcdf90b791dcacef51065a7a4e7)
C         2.31714479507500   -0.19854848222898   -1.35751501858950
C         2.92971012801202    0.18117722041541   -0.00543799476356
C         2.53860569904069   -0.79787684351639    1.11205715632418
O         1.16038415361712   -0.63439779698703    1.43205481102158
C         0.82588020925339   -1.25085462454762    2.65905268580250
C         1.21042811329266   -0.32205588988390    3.79542429734091
N         1.56932723671787   -0.74103809495827    4.96577406230401
O         1.10173486630794    1.00374355504208    3.67613888084140
C         1.11387842504994    1.83583139611937    2.50056214508754
C         2.41590800796124    2.15965723533553    1.74743342363450
C         2.60087658974002    1.66236550664062    0.29217129409880
C         3.68203255999318    1.96756076774908    2.62536291145502
N         3.85970604625241    3.02317820185275    3.48950007577337
N         4.40196130580221    0.91691560537741    2.42040573940640
C         5.46846651876895    0.56206668067866    3.36862698531790
C         6.33735146941267   -0.52488564431286    2.71481499064808
N         7.03621379502760   -0.00133602786204    1.53898379717092
H         2.91920303273957   -1.04442241609698   -1.70420958124106
H         2.25458382713682    0.61750386058870   -2.08561359966347
H         1.31149301575233   -0.60607527673670   -1.27674840227262
H         4.03170003933915    0.17089826246154   -0.03390018554679
H         3.17530447128924   -0.60811212889759    1.97324365694426
H         2.63769742627873   -1.80245142767706    0.68168374911377
H         1.41238798578246   -2.17680756354908    2.69501896873744
H        -0.25884901237530   -1.35704958894739    2.62716818798527
H         1.65414460919062   -1.75835525046165    5.11257828722472
H         0.82214659395160    2.81639052672382    2.90371549575707
H         0.33944745788125    1.50054256669153    1.80869735988365
H         2.43543739223872    3.24133519803620    1.52347538011089
H         3.36102977710440    2.32803392612209   -0.13919156787084
H         1.64638270268012    1.92869128155712   -0.18511883939780
H         2.97500909830063    3.44991459608489    3.76223438716563
H         4.69737112086920    3.04906391270137    4.05792478954434
H         5.07579121962676    0.27489931401278    4.35146830563540
H         6.11781600279535    1.43550584646284    3.50459239730008
H         5.55826191313083   -1.28905728408094    2.61649049735840
H         7.12378011089027   -0.87288985908519    3.39225544201923
H         6.38913359728170    0.00634627901457    0.74676976573372
H         7.80166312736535   -0.54368478673943    1.14609401733217
