39
 energy: -54.516446553968 gnorm: 0.111630130962 xtb: 6.4.1 (79825abcba525fcdf90b791dcacef51065a7a4e7)
C         2.86761467012027   -2.61022299428318    1.00123501238818
C         2.20674344326847   -1.29048840167631    1.41244057735628
C         0.76552174709483   -1.48538511602904    0.91726358185705
O        -0.09836725371062   -0.35464824346316    0.97848810319481
C        -0.64869776510845   -0.12639968981967    2.26007875838931
C         0.19275813778745    0.43136789796492    3.39265630598133
N        -0.12709989939413    0.18658321105392    4.62222718068291
O         1.34700598356723    1.06475490994404    3.16833462720482
C         1.64054147469124    1.75554853051117    1.93905051700008
C         2.96220636564537    1.23776892770542    1.34537273380246
C         2.80650444352642   -0.11489955615326    0.60689780512479
C         4.24290391058766    1.23639628248088    2.22317939696541
N         4.19739694060817    0.97892508227673    3.57383359188091
N         5.26005575044681    1.66195070049474    1.55350359458905
C         6.60399527009505    1.40291631668752    2.09127902880418
C         7.26524333168871    2.68607621609239    2.62056931561276
N         8.66943096939250    2.68666859566656    2.20421793383973
H         2.50244401090761   -3.51853118467800    1.49092938004683
H         3.94091385624493   -2.51915064683827    1.20052759813569
H         2.63270381617260   -2.77414963040920   -0.04847056056756
H         2.20248008519137   -0.98826112853489    2.47260000819488
H         0.36138358135684   -2.33794645866415    1.45841944242431
H         0.83710169066712   -1.68648977347873   -0.15913958013022
H        -1.09999750303482   -1.02747800741258    2.69258332959107
H        -1.40776792830677    0.64211776323153    2.11133438342559
H        -1.04314794413673   -0.22690102143286    4.85367140674988
H         1.72300664903739    2.84483816695006    2.06468438504001
H         0.86666888267789    1.54404355406148    1.19930347964176
H         3.15302961526955    1.95250293941234    0.52481950901397
H         3.82951283832861   -0.44263635102944    0.37654229955673
H         2.18010278563749    0.08172125320129   -0.27557321209140
H         3.47582028676048    0.63154523004916    4.20457204234156
H         5.14205811927898    0.93824694616294    3.93635262737330
H         7.16696373945671    1.17136166015879    1.17909209739081
H         6.62656794567890    0.52951526240320    2.75437660170809
H         7.31135961303346    2.71087414762815    3.71503945499214
H         6.75065098440947    3.60067102235704    2.30877842240011
H         8.85518643354276    2.72510729636672    1.19903524152196
H         9.16803078713910    1.89596849405406    2.60497822002381
