39
 energy: -54.522867076748 gnorm: 0.102412045163 xtb: 6.4.1 (79825abcba525fcdf90b791dcacef51065a7a4e7)
C         3.53892261235840   -1.55601516218010    0.14562870542540
C         2.59059731268501   -0.65067612851260    0.93845941933103
C         1.13743730106484   -1.06817350028780    0.66582984908652
O         0.17089604221198   -0.10545684196976    1.07521127711774
C        -0.52562241669473   -0.44596712494849    2.25688402058425
C         0.34146602669105   -0.48617147054865    3.50124163367604
N         0.06324253303995   -1.10960814314824    4.60032836836441
O         1.32653211878282    0.40969268925592    3.60545111245285
C         1.48568965866317    1.63849938775091    2.87114783414294
C         2.70641481292352    1.70623806782577    1.93702327962918
C         2.68737720780491    0.86290208227985    0.63789961122999
C         4.01062313841905    1.50301540064971    2.75462576452350
N         3.90056082895287    1.08711047561384    4.06135390827919
N         5.07634084047840    1.89338699795612    2.14142442002743
C         6.41492258019237    1.89664041763051    2.75024539743031
C         7.55085665040094    1.29438944813994    1.90712970039430
N         7.74752223482593    1.80427347626469    0.54829466111480
H         3.63103770084545   -2.57557635416739    0.53316417190851
H         4.56350470886618   -1.16850435788626    0.13857534102969
H         3.14928205477355   -1.73459220794351   -0.85448494435673
H         2.81605858540141   -0.76570018515833    2.01141524356282
H         0.91374148161961   -2.07037115334737    1.02443577096500
H         0.97332460553428   -1.07498205012325   -0.41917300963151
H        -0.96605812763017   -1.44864419576457    2.19918767392172
H        -1.25888799436764    0.35794492354970    2.32744241583688
H        -0.66862034555068   -1.83131091918874    4.51546675585903
H         1.57640843543337    2.38111976661915    3.67701467701912
H         0.60646097573604    1.86967635709232    2.26753127611108
H         2.68030496661817    2.80758392223961    1.85382830404071
H         3.67954437267514    1.06753738651289    0.21275263810885
H         1.82718609180023    0.98627897223849   -0.03637277596410
H         3.10849657713787    0.52555339941289    4.37194126083256
H         4.73656647844897    1.01220412212632    4.62787230233759
H         6.50154971241130    1.37355588781184    3.71020078938535
H         6.70742835506720    2.92275346799170    3.00435107189043
H         7.30178871230299    0.22821402434584    1.86421512787973
H         8.49856376615079    1.52636763330463    2.40365749154391
H         8.12911228147231    2.75317838963477    0.56682495683437
H         6.81477709029402    1.94733585151689    0.16890450899574
