39
 energy: -54.522528339768 gnorm: 0.106694708297 xtb: 6.4.1 (79825abcba525fcdf90b791dcacef51065a7a4e7)
C         3.75880444669466   -1.21380432378562    0.02071156272836
C         2.69030199471837   -0.46262330773150    0.82169207606870
C         1.31484022532542   -1.11793566812956    0.62426971883588
O         0.21841024032982   -0.43097364482292    1.21970482039132
C        -0.10818618446575   -0.73456412330761    2.56082495179319
C         0.83699621247708   -0.36387262031984    3.68825677722975
N         1.31987519705660   -1.14829031122188    4.59687656792315
O         1.28309252096529    0.89348316128941    3.75023948609459
C         1.11950963073795    1.88271066722563    2.71623373122331
C         2.28528387389328    1.96892834199045    1.71579176788925
C         2.44443766855792    1.02855772946980    0.49526991076675
C         3.60907100840219    1.80953906532472    2.51135162149012
N         3.63594752049830    2.26662315467283    3.80864919186882
N         4.67647455931488    1.29310569112151    2.00330983354142
C         5.96146983167002    1.08954615060588    2.68874793434365
C         7.06059375549999    0.52659063537341    1.77283076513770
N         8.07444455363034    1.48702330883074    1.33150616862538
H         3.83973263496548   -2.28076658405827    0.25139775026575
H         4.68355559115696   -0.79584400381951    0.43317652322199
H         3.66061749055751   -1.10586394530760   -1.05754862635234
H         2.83715178863145   -0.51690341203784    1.91292364399539
H         1.34286688527512   -2.13649211515540    1.00478966167256
H         0.96102325274959   -1.12643929867054   -0.41445631292094
H        -0.25719874997146   -1.82102661365157    2.56908693566944
H        -1.01902921425078   -0.20314012598316    2.83810630046201
H         1.16502271394299   -2.16082932239427    4.47660563030282
H         1.03157283412790    2.87174035724295    3.18869928056966
H         0.13730150976123    1.77378591630037    2.25337150930850
H         2.16272148815246    2.95621591583708    1.23536740488007
H         3.35387440993109    1.38187428124117   -0.00981769597452
H         1.57913016635154    1.12851035322180   -0.17632989156239
H         2.75678609964240    2.34832870904555    4.31813527860663
H         4.38331327317738    1.90060270519896    4.38565265728149
H         5.88122843469594    0.36676494170962    3.50959183831141
H         6.34818153663012    2.04203656616390    3.07117885432161
H         6.55178805989650    0.01198745138963    0.95008726118398
H         7.58133912416286   -0.27298725893053    2.30948891367843
H         8.39497960560544    2.01678523593574    2.14574474252960
H         7.61028849816505    2.14187340801865    0.70688809137342
