26
 energy: -46.150134764671 gnorm: 0.228925960011 xtb: 6.4.1 (79825abcba525fcdf90b791dcacef51065a7a4e7)
C         3.69851888781018    0.02221001225215    1.14639923590675
C         2.58863108677177    0.05746872329730    0.07275842487971
C         1.56041322112375   -1.02198228690629    0.36935746418807
C         0.47714522474205   -1.71431082719805    0.58672447574449
C         1.79162342896478    1.30513424397733    0.23105145292261
C         1.35411264906204    2.40268236455726    0.43277293902957
C         2.97805612879267   -0.09035083315468   -1.46294928089956
N         3.71258813505200    1.06623083534277   -2.00471440729358
C         4.98053484416744    0.81727128684742   -2.43904571277553
N         5.63727918141088   -0.28387531888003   -2.56271297012218
C         4.91473096251128   -1.43583868752231   -2.32337622698512
C         3.68418728919651   -1.41342754614035   -1.77874537030269
S         2.56754000636681   -2.74930616347102   -1.82434012056871
N         3.53007327456512   -4.04292368841685   -2.21834955923992
C         4.79678219510425   -3.93619039895497   -2.44447027601456
C         5.64558183049260   -2.71564778528500   -2.56124619861307
O         6.80579997296539   -2.81102179846717   -2.94262745002857
H         4.25186613463108    0.96775198659832    1.21166147088031
H         4.43041404628744   -0.75974905337877    0.91587941964640
H         3.24642242258039   -0.26707305168892    2.10199538112984
H        -0.31747524995447   -2.28474088769766    1.01082290697438
H         0.87580944200611    3.34665213020558    0.58181432458934
H         1.99725277893508   -0.10797460728515   -1.95991302914706
H         3.37220270315577    2.02086688441669   -2.07168223717044
H         5.56887380157198    1.72322068431941   -2.66644496872311
H         5.34016171541835   -4.84452534675219   -2.74848793112336
