26
 energy: -46.152465951656 gnorm: 0.221812013523 xtb: 6.4.1 (79825abcba525fcdf90b791dcacef51065a7a4e7)
C         3.85380747687172   -0.35714596389469    0.71108607656941
C         2.54939746033346   -0.06470046888420   -0.06272838502386
C         1.47382614947174   -1.09616999928448    0.23666160168500
C         0.52966771742744   -1.92798158857506    0.57826235982220
C         2.05846957912719    1.27690389998587    0.35683642518037
C         1.72203932542594    2.37161497789970    0.71058977161988
C         2.77978893909044   -0.01382946608198   -1.63633333338914
N         3.60272010636883    1.12632531008205   -2.07628702339614
C         4.87668873661942    0.93733122494254   -2.52305156403679
N         5.45717442011585   -0.19746382160736   -2.70854314603120
C         4.82114748830657   -1.36313754414417   -2.33032084436079
C         3.52383565088894   -1.30992857991501   -1.97604194399549
S         2.51504860107995   -2.71269387450278   -1.75661105053170
N         3.54739717395614   -3.99237557332858   -1.98427571762656
C         4.81780863976646   -3.81411992430139   -2.13040471918306
C         5.65578100084120   -2.60069246521977   -2.35225560297087
O         6.87506408761591   -2.59421933362276   -2.47041159463549
H         4.74509707255648    0.10333700845058    0.26604647768680
H         4.03471534697741   -1.43730797551257    0.73923313021103
H         3.79112909702086   -0.02963127553854    1.75513849007726
H        -0.36911052858895   -2.49907364205241    0.63044613363622
H         1.45979199711886    3.38594980835188    0.92134409850729
H         1.82002297990465   -0.01499374467461   -2.17308906099897
H         3.12553492414339    2.01422452193455   -2.20121184088689
H         5.28924562164492    1.86546919031284   -2.95543355948810
H         5.39122818069538   -4.72696998037214   -2.35547185840318
