26
 energy: -46.148914188898 gnorm: 0.221438016202 xtb: 6.4.1 (79825abcba525fcdf90b791dcacef51065a7a4e7)
C         3.61627777967947   -0.40615316106888    0.88629319960534
C         2.45306797854745   -0.05517962981152   -0.06741495444857
C         1.34981153372614   -1.05801813776254    0.22848635552576
C         0.46402991202287   -1.97179927565401    0.51209122227742
C         1.90190243993994    1.26827626891032    0.33461511081372
C         1.79574795333799    2.41030640930471    0.68277815070726
C         2.87129669886153   -0.02616763197262   -1.60238846596918
N         3.74088582968131    1.11585703956257   -1.93453642645171
C         4.94252740131159    1.00075595753671   -2.56787888423506
N         5.47564054348996   -0.15101961490138   -2.78772876005764
C         4.79702782782158   -1.29448247100636   -2.41576763027444
C         3.51239745146012   -1.35446480768895   -2.01891794771059
S         2.56206343436483   -2.79670153278088   -1.79448491118551
N         3.68065838180461   -4.01782074652485   -1.90750366861009
C         4.93437692570523   -3.81095424051086   -2.13656724912522
C         5.61946222419943   -2.53746266643998   -2.50084605927934
O         6.80051573971388   -2.56610849199186   -2.82479977455341
H         4.26566841177971   -1.16608343434493    0.43319304622027
H         3.23679604871390   -0.79152005726144    1.83905542607757
H         4.26883011303516    0.42591769925891    1.17451781972203
H        -0.49190155091565   -2.43283130623088    0.61365959484642
H         1.65482152743470    3.35480707615331    1.16249102836232
H         1.90938625719827    0.07779632771156   -2.12505333612186
H         3.50224903307600    2.05562761090844   -1.63194648368374
H         5.44885655673112    1.95761839666270   -2.78384766841907
H         5.61322027224577   -4.67609806884580   -2.07776009316655
