26
 energy: -46.153259635147 gnorm: 0.227499634576 xtb: 6.4.1 (79825abcba525fcdf90b791dcacef51065a7a4e7)
C         3.84945205421038   -0.25733184523040    0.93378534213494
C         2.57158927607687   -0.00451040874419    0.10375719776251
C         1.50946496412230   -1.01805966553391    0.49749220028600
C         0.56074878348713   -1.87963640104597    0.73761691916702
C         2.14031962453756    1.40710562373674    0.29944511984530
C         1.79882795265925    2.55509548363208    0.34658121771072
C         2.76222943204643   -0.15372470660157   -1.46891315663682
N         3.47313817229734    0.95666394206998   -2.12646444011028
C         4.83451418544493    0.89193041725074   -2.15436290863225
N         5.50622364364794   -0.20167588490069   -2.04499093952982
C         4.78818385032714   -1.38044592660605   -2.08101394407658
C         3.44968792090337   -1.43563219732164   -1.95160806827529
S         2.48263527048329   -2.88283292028218   -2.01462347034882
N         3.61234956752925   -3.99516565362649   -2.50617359790083
C         4.87406367950497   -3.82213652841763   -2.71880587648494
C         5.62385613371482   -2.56198364642935   -2.44742477896728
O         6.82894333367659   -2.45045327008985   -2.63710824650443
H         4.55144768981785    0.57682076453889    0.80771587733166
H         4.37115790665687   -1.14080568847729    0.54964102368140
H         3.61030433387573   -0.23970258432458    2.00324196575360
H        -0.30802232470750   -2.45815710084999    0.95492356057531
H         1.69028492836138    3.60926110364593    0.48449225902963
H         1.73983779575343   -0.17074167692158   -1.87349261063689
H         3.08675405073369    1.89463156508315   -2.07546470159968
H         5.40396704198167    1.83268774365815   -2.25078157034613
H         5.33847898062503   -4.74393691544304   -3.10268461666023
