26
 energy: -46.150149155471 gnorm: 0.212938221120 xtb: 6.4.1 (79825abcba525fcdf90b791dcacef51065a7a4e7)
C         3.70199753769349    0.16824627643566    0.80910580186597
C         2.46651945331208    0.17141803473740   -0.11792308511751
C         1.51035348360004   -0.95688777585998    0.23291888636612
C         0.87720316933165   -1.76019089948081    1.04153594770540
C         1.75964304635347    1.47793520034131   -0.01650423169031
C         1.04699944342878    2.44170646162097   -0.01828449219049
C         2.99407828289208   -0.04615281245785   -1.60326656954212
N         3.97015617286095    1.01798551860332   -1.89585749713228
C         5.28720512410265    0.75336221358302   -2.12752528704834
N         5.75551846233503   -0.43967751181023   -2.25585841317801
C         4.91850371051252   -1.53442316108114   -2.17032551710026
C         3.62229273030390   -1.42646071752099   -1.82457421016011
S         2.54061645714060   -2.76494287251670   -1.55625784074473
N         3.32543913815063   -4.01921313470172   -2.30860051459899
C         4.58414192527038   -3.99050514100438   -2.59481233400456
C         5.51856456017839   -2.82843063846714   -2.61090248444978
O         6.68350919644221   -2.87623452002257   -2.98676520025086
H         3.54920607447898   -0.35812498287597    1.75994229106964
H         3.89688052922762    1.19556323797155    1.13607731713623
H         4.59518818209382   -0.27697372124721    0.35608314749661
H         0.08516970902600   -2.32474499955385    1.47815168287319
H         0.53650664219099    3.38049591704638   -0.00655121900174
H         2.08081461513747    0.00737311891383   -2.21346589752090
H         3.59666838087783    1.95104901827183   -1.74896876527606
H         6.03262701534094    1.55594846989232   -1.99041597645828
H         5.04697955608065   -4.89680089788691   -3.01572769619854
