26
 energy: -46.151069600722 gnorm: 0.225762174649 xtb: 6.4.1 (79825abcba525fcdf90b791dcacef51065a7a4e7)
C         3.52623659451184    0.01787755893514    1.09866010799388
C         2.40813204441772    0.05045670975054    0.03349369124593
C         1.38654961477007   -1.01930094874754    0.38335836352745
C         0.35599208570448   -1.67295890326760    0.84239997587275
C         1.82877674338771    1.42133230920952    0.07815492073162
C         1.46593070309769    2.54809558892231    0.26648005171985
C         2.91491906417405   -0.15325503229880   -1.46101928983653
N         3.79803495427792    0.96702828205456   -1.82952911952122
C         5.05624232480992    0.77073599844259   -2.31604422298069
N         5.74881271416950   -0.31457841818131   -2.35566029696982
C         4.97940405564812   -1.43854179255684   -2.12961992775337
C         3.68651575510862   -1.44424143410648   -1.75576154682053
S         2.68324826427200   -2.86628596180626   -1.68651275194765
N         3.62123845427837   -4.10969352827609   -2.26033507206076
C         4.81524071298378   -3.87303130723213   -2.69094354735558
C         5.67596362229847   -2.65632315357824   -2.63996271333006
O         6.71427797874002   -2.63975676291000   -3.28979565197986
H         4.37954301672982    0.64291861240756    0.80592509378876
H         3.88439537857255   -0.99625317667795    1.30730099775338
H         3.15800741620928    0.40746012770178    2.05462694213073
H        -0.31722849853497   -2.42989493893438    1.17480560018422
H         1.15717606005883    3.56924021337111    0.32972895601351
H         1.98263879869345   -0.10508024033618   -2.04221758485099
H         3.26916523335214    1.82711306850609   -1.94010896087950
H         5.49113455638062    1.72191675603267   -2.66920335382179
H         5.30247525211637   -4.72381637119892   -3.19246891315645
