26
 energy: -46.154367157488 gnorm: 0.213981938768 xtb: 6.4.1 (79825abcba525fcdf90b791dcacef51065a7a4e7)
C         3.61845142023062   -0.37526204537804    0.99541927467767
C         2.42827218713724   -0.13869643688097    0.03974736144376
C         1.28399563087452   -1.12052419166894    0.23226449712571
C         0.11844935308174   -1.59523698418248    0.57312576146763
C         1.92196155456813    1.21847049512402    0.38426817905298
C         1.52191362635880    2.33373242507440    0.56557343094174
C         2.93616653148156   -0.04575016938278   -1.46534564530592
N         3.76369791709405    1.10595296022350   -1.86471963346629
C         5.10281142520121    0.92632269939998   -2.04588634771828
N         5.67026701798691   -0.17759608294905   -2.39010725435308
C         4.91270216960453   -1.33164117148610   -2.36455264920314
C         3.66937500899071   -1.33565866323198   -1.84930107562513
S         2.66797580390478   -2.75968217010411   -1.79537153354105
N         3.69849727319650   -4.03176796622785   -2.06920224342903
C         4.91425086677391   -3.85296570503535   -2.46549381504387
C         5.60751281419456   -2.57719791756543   -2.80553223038041
O         6.64533722411921   -2.60515665470476   -3.45575741975108
H         4.43615603126998    0.31560931818735    0.75343190059718
H         3.93384934351583   -1.41934176898165    0.89201922130458
H         3.31597853209525   -0.32164259484281    2.04750054690831
H        -0.75873564031037   -2.19269475220125    0.67442891059415
H         1.36803285357816    3.38135076816192    0.71008198878519
H         2.01731811227572    0.10551885608535   -2.05023369683796
H         3.41929380050271    2.02973995215071   -1.62042407468789
H         5.70761564898862    1.84261687903253   -2.16083975900867
H         5.58301582273816   -4.72255701450720   -2.56205882699493
