26
 energy: -46.148381288692 gnorm: 0.203952146720 xtb: 6.4.1 (79825abcba525fcdf90b791dcacef51065a7a4e7)
C         3.86876557132062    0.00953021913197    0.82659161258197
C         2.54269173281764    0.03572958640001    0.03498535299432
C         1.52605100030448   -0.97719192298397    0.53583371787937
C         0.68153831548297   -1.96035406301278    0.39361095983442
C         2.00574377314162    1.39769896737187    0.30641385301870
C         1.73033855237023    2.56159817553099    0.38521558312331
C         2.72929086515185   -0.16463884509188   -1.53247561771064
N         3.43287609162600    0.98648413506614   -2.12460026989219
C         4.78912332030447    0.89446946414456   -2.02242316965020
N         5.47673496548369   -0.19175667277357   -2.10263267462581
C         4.83714255512686   -1.41313567394093   -2.17701332165661
C         3.50508890164832   -1.40658764525504   -1.98478186881389
S         2.53219143649164   -2.84991504023509   -2.04665479006910
N         3.53634439828975   -4.03600818004759   -2.62976706005875
C         4.81318902014848   -3.85577460750962   -2.69501829613154
C         5.63837506545667   -2.65909360805776   -2.36208547653547
O         6.85861308287197   -2.74094492493333   -2.29156224754557
H         4.54380502627323   -0.84339149012292    0.68048120678108
H         3.72115239145503   -0.05182017093991    1.91043494372787
H         4.47629068490845    0.90575955265548    0.65651482124498
H         0.12504227425909   -2.63134693498014    1.00741252428347
H         1.44866235600323    3.56093828517674    0.63828489289219
H         1.70043773500136   -0.19222176362505   -1.91972126048927
H         3.00716576804038    1.89396395251571   -1.96050264948358
H         5.37314047658755    1.81996339906378   -1.87757014952732
H         5.37003126929275   -4.76494351055924   -2.97087881099721
