26
 energy: -46.153308691165 gnorm: 0.219577580093 xtb: 6.4.1 (79825abcba525fcdf90b791dcacef51065a7a4e7)
C         3.74271400483651    0.11064745408698    1.01995452564129
C         2.54224002237053    0.05862303922885    0.04941117599969
C         1.65780102131173   -1.12527808824229    0.40516845506872
C         0.60222975508460   -1.75172737155291    0.84490404302408
C         1.70797987103512    1.28724458753278    0.15639831460753
C         1.33374595325180    2.42586406858688    0.17101954871695
C         2.95716781661366   -0.08917387865633   -1.47960538938358
N         3.78529278699682    1.06573411569815   -1.86835266475540
C         5.05920863488879    0.83989141914415   -2.29782546760795
N         5.65297706495835   -0.28662978103407   -2.49152523338360
C         4.92839029761363   -1.42867671848148   -2.21389163433003
C         3.62320269305246   -1.40827231269443   -1.88612382978814
S         2.54649175833424   -2.76513335997113   -1.70398824493480
N         3.46466161212674   -3.99739114583819   -2.33141545192686
C         4.68921243616400   -3.88228426876082   -2.72422552067610
C         5.59984064719064   -2.70978667643631   -2.58341584406165
O         6.78084750510477   -2.90472415369315   -2.84394641469994
H         4.06507191015024    1.15769837992120    1.08531281058526
H         4.51759572674742   -0.62372629110506    0.77393946421478
H         3.37878594504833   -0.16018539629159    2.01767484488419
H         0.08344266654586   -2.62157136477385    1.17792509942521
H         0.84640430779329    3.37639433532796    0.13851493718634
H         1.98826543382823   -0.10735764369991   -1.99937101033462
H         3.39745588883256    2.00221405660540   -1.80304735334833
H         5.63202098138944    1.77170936624889   -2.44681805049240
H         5.12433654770542   -4.79742622278791   -3.15543617123833
