26
 energy: -46.150287783807 gnorm: 0.212919283454 xtb: 6.4.1 (79825abcba525fcdf90b791dcacef51065a7a4e7)
C         3.70984862527685   -0.11899737583802    0.85517556372162
C         2.44055498837672    0.05369994628085   -0.00788179388981
C         1.39374891488797   -1.00587007617551    0.29531098777203
C         0.80575393792885   -1.86149279218331    1.08411289935645
C         1.88290420843254    1.42306777850592    0.16763025956123
C         1.46242214163424    2.54519953578376    0.19472754191048
C         2.83222769573258   -0.13152227515935   -1.53895523241927
N         3.67666466921464    0.94938541214170   -2.07681455985981
C         5.03534482754312    0.84932374026614   -2.02896801706750
N         5.67312884336737   -0.26605278044842   -1.93787833031487
C         4.91203608135561   -1.41651724222428   -1.99743449671213
C         3.58317992039498   -1.44451068818953   -1.78596244756718
S         2.53848810868377   -2.83777873918322   -1.81718527482699
N         3.50074378464081   -3.96007272052501   -2.57195693828071
C         4.75475550346881   -3.80461213278740   -2.83721280662691
C         5.60401302392996   -2.60770139597070   -2.57266024735261
O         6.80568876478521   -2.60929359186150   -2.81062427003785
H         4.43434708575143   -0.79701263450125    0.38624139810619
H         3.58288682262656   -0.61807894539769    1.82216479575166
H         4.25762482556658    0.80349519798640    1.07920364462776
H         0.07704215247149   -2.59414284132304    1.34655274786135
H         1.00913635804492    3.49966844696521    0.03476722098206
H         1.85916460985587   -0.19241202189981   -2.04758028346137
H         3.28240749555763    1.88063338746590   -2.17176409485855
H         5.52531858313768    1.83840545197689   -2.04447758319539
H         5.23461851781597   -4.67685897228850   -3.30803904982486
