26
 energy: -46.155524016118 gnorm: 0.219254404099 xtb: 6.4.1 (79825abcba525fcdf90b791dcacef51065a7a4e7)
C         3.84046450947624   -0.12937801440476    0.88784378871649
C         2.58162056900501    0.04356680020293    0.00966344687877
C         1.58317574970374   -1.04585005019710    0.36560769393407
C         0.84115506739749   -2.02669045734994    0.79849817840458
C         1.94368630767616    1.37457100791521    0.20566038916046
C         1.52990405534647    2.47502267245586    0.43913306068941
C         2.78124757042033   -0.08056835537113   -1.56407101668393
N         3.61903299481342    1.02677554573383   -2.05664887478983
C         4.97319126140579    0.92154697283347   -2.17282000651373
N         5.56288080102439   -0.22125123032688   -2.09927361655626
C         4.81514461563650   -1.38114218455522   -2.05544248360427
C         3.47347348173711   -1.39239758986757   -1.94982703538796
S         2.44239382869523   -2.79078165831575   -2.07209084035674
N         3.49197814990405   -4.02147582763963   -2.44481679970325
C         4.75158934029091   -3.80120682771780   -2.62352122516814
C         5.60776131069006   -2.60901887414359   -2.35993227468717
O         6.82987062290971   -2.64461956590846   -2.43632211448462
H         4.25404999713488   -1.14380814821495    0.82165840052662
H         3.49047095378381   -0.02822646475129    1.92106339924423
H         4.68505878070335    0.55220819408294    0.73506732286535
H         0.11006420039143   -2.79107454450029    0.66472694802570
H         1.10554698311297    3.45540176791852    0.46818662578668
H         1.80215332183652   -0.01428919726709   -2.06029706377077
H         3.21723284757103    1.95768103458459   -2.11705197230534
H         5.61465803856508    1.79892686832299   -2.36600993557884
H         5.35776071389390   -4.69623452928657   -2.83385926635850
