26
 energy: -46.148570146923 gnorm: 0.227305149220 xtb: 6.4.1 (79825abcba525fcdf90b791dcacef51065a7a4e7)
C         3.67364739809967   -0.25199696243988    0.79902862058367
C         2.42181980654093    0.01434766221931   -0.06571811625945
C         1.37880703365857   -1.02663179438491    0.30697954660843
C         0.36661249903804   -1.63975022048920    0.85432292818077
C         1.95111618284000    1.41866856777258    0.08682043882975
C         1.60264267812961    2.56520475497202    0.11402504538474
C         2.75826957381772   -0.08052222987790   -1.61803957257005
N         3.60116368291476    1.06914522146676   -1.99022522198540
C         4.93996405314433    0.82255925656552   -2.06179571017323
N         5.57941120074013   -0.27155018184267   -2.29236554474932
C         4.81879067574194   -1.42319665188100   -2.25306618945658
C         3.51543698908043   -1.37825342637574   -1.92048231699955
S         2.66709805526504   -2.88553809711479   -1.71562703237894
N         3.74696506524719   -4.08121750299483   -2.11487385666683
C         4.97759965151873   -3.93784798036469   -2.47827137663926
C         5.63461231339433   -2.60979042340653   -2.64685130096929
O         6.82068580001352   -2.55175026621320   -2.94770844781518
H         4.45847096045679    0.51515626499681    0.79356422787304
H         4.22880781264201   -1.14570499207463    0.49349178298548
H         3.36122648741062   -0.39222935983948    1.84016643392135
H        -0.49312925744604   -2.06971540287929    1.31545813123704
H         1.31793450979002    3.58336620543388    0.27008504289558
H         1.77553154828880   -0.07271625557149   -2.11141955580030
H         3.32913572110758    2.00041181890133   -1.68952564143503
H         5.47781711217614    1.78374661582960   -2.13548703144567
H         5.57959084013710   -4.85998536870978   -2.47282563391086
