26
 energy: -46.148419024238 gnorm: 0.225170709645 xtb: 6.4.1 (79825abcba525fcdf90b791dcacef51065a7a4e7)
C         3.55030011123306   -0.73457377517523    0.89822488757543
C         2.42400373326219   -0.13996380134205    0.02432893917132
C         1.18493363094099   -1.00723548768777    0.17586278667025
C         0.13784183865948   -1.74996550230880    0.40387078561739
C         2.09488437052665    1.27467769750988    0.35207424109329
C         1.88981469032979    2.43857705075572    0.55208378747673
C         2.84327393001219   -0.00115453878384   -1.50434536237930
N         3.72089596679652    1.14736472223841   -1.78967138406327
C         4.90261421212514    1.00273543075640   -2.45370281930374
N         5.45168884504580   -0.11679822728797   -2.77664552391227
C         4.87056532242539   -1.29962419199387   -2.36482543271682
C         3.60621730482500   -1.26867685235690   -1.90457648618693
S         2.69953552287990   -2.72403923241311   -1.59896203036523
N         3.81935127203593   -3.94296013634897   -1.72307707795397
C         5.01206557761817   -3.75575895154288   -2.18074765490970
C         5.65394377684259   -2.52085721492004   -2.71631443007745
O         6.65657783781029   -2.57621600623225   -3.41796557416402
H         4.53125638343761   -0.65563740315098    0.41243090058930
H         3.30684973915393   -1.77259298891359    1.15025249281032
H         3.59264616667295   -0.32524030356677    1.91404613795201
H        -0.68499751379234   -2.42737548679912    0.43075438327935
H         1.73843781104429    3.43894626117282    0.89619522783882
H         1.91486057681126    0.00602966246024   -2.09362950179231
H         3.49946712595016    1.98665974490054   -1.26219621506386
H         5.28777671461940    1.96700841823380   -2.82843593410272
H         5.62620574480604   -4.66767697451539   -2.24397569015464
