26
 energy: -46.153198317937 gnorm: 0.226748877731 xtb: 6.4.1 (79825abcba525fcdf90b791dcacef51065a7a4e7)
C         3.91851001844301   -0.36703243669182    0.67629784035958
C         2.60076237155466    0.01273536083228   -0.03441746908377
C         1.44376785869682   -0.86380581417088    0.41664427818705
C         0.44871072367354   -1.66449410432611    0.67893481215968
C         2.15151501876054    1.41821443426639    0.16496288141145
C         1.60663509586738    2.43099122638596    0.50276186356790
C         2.73546781670928   -0.11719117004980   -1.61456752239542
N         3.49011648890663    1.04120233711672   -2.12383930933300
C         4.82959066245676    0.87120737759500   -2.31152003703381
N         5.48442661634682   -0.21666738085327   -2.52796621441173
C         4.79002580783698   -1.38263057781822   -2.27357489282515
C         3.47578673024985   -1.40712342232883   -1.98454462930900
S         2.56368161549162   -2.86971957871469   -1.73468777657977
N         3.62309265827640   -4.07906771894465   -2.14734422541427
C         4.86757043180589   -3.84754476144858   -2.40179706285011
C         5.66232402524397   -2.58579875777051   -2.41541486785658
O         6.88489706331260   -2.54397370764079   -2.48037502337233
H         4.68978504260111    0.41211869652798    0.62569836982365
H         4.35729799448466   -1.26852905432859    0.23466581288540
H         3.75467678678384   -0.52938448219833    1.74776430317480
H        -0.50159159781513   -2.04507514811894    0.97685290986495
H         1.23425103741833    3.41538127356318    0.68816023650278
H         1.73045870334691   -0.07856146539403   -2.05922828612862
H         3.14041776172653    1.94589849754929   -1.82232217083636
H         5.38643216227334    1.81365152409612   -2.45408243201026
H         5.49568450148333   -4.65721925085091   -2.80510878966375
