26
 energy: -46.151119697088 gnorm: 0.224481707024 xtb: 6.4.1 (79825abcba525fcdf90b791dcacef51065a7a4e7)
C         3.74701482764451    0.10770773778234    0.98377260015249
C         2.50632068960779    0.08030469855797    0.06413907284570
C         1.64363288596006   -1.08982917493822    0.50795649196362
C         0.58847147161654   -1.84648351521910    0.62689078127977
C         1.85566373464899    1.40670257372854    0.24923720718413
C         1.51720051906274    2.51340298308450    0.56128841934338
C         2.83746439653536   -0.14610544096141   -1.47566056281082
N         3.63584417295012    0.99528654914230   -1.95580839173790
C         4.98244500405672    0.81179444593319   -2.06215805076409
N         5.63493272751429   -0.29249174534018   -2.18023575226133
C         4.84621273431598   -1.42560909998889   -2.19876777051621
C         3.53108847514206   -1.44085274464267   -1.91314817023688
S         2.51938136487465   -2.85722992988884   -1.97540640236595
N         3.56387273103897   -4.07074727610009   -2.41309746197804
C         4.82430334987691   -3.94035400536947   -2.66086007057051
C         5.57191492408685   -2.65009996878893   -2.64889539256792
O         6.75142339330830   -2.61570698204744   -2.97788002649907
H         4.33278271436773    1.02700349956181    0.85620596780569
H         4.45619765386320   -0.64193835163230    0.61585909255000
H         3.47952900191358    0.06997347149669    2.04597190026936
H        -0.08653776693933   -2.63889460851722    0.85736597363477
H         1.27099748910376    3.48934734242776    0.92043028429924
H         1.84115425871874   -0.11827967257934   -1.94025781078329
H         3.35197657533277    1.96274116572101   -1.83281377907555
H         5.63134637083543    1.67813505650380   -2.27890311804625
H         5.30602722337211   -4.88468483346394   -2.95909119936309
