26
 energy: -46.147958145060 gnorm: 0.235644677191 xtb: 6.4.1 (79825abcba525fcdf90b791dcacef51065a7a4e7)
C         3.80121251074504   -0.32934786880295    0.96249965194916
C         2.59897042925723    0.05340011586473    0.07147964492723
C         1.46525483073301   -0.86448332524396    0.49879261981321
C         0.48958673940582   -1.66345675004149    0.83007801679640
C         1.99381621506322    1.41014323830667    0.17139765197368
C         1.52088697747602    2.47451906544067    0.45452508988986
C         2.78241878588091   -0.17955160812076   -1.49184400679826
N         3.49613583603027    0.97168726061824   -2.07148607768778
C         4.85291607246519    0.93435169043716   -2.19824113880892
N         5.57692203981263   -0.13051299856751   -2.23000766546345
C         4.93524923108626   -1.35290507546768   -2.21022859413676
C         3.61936470829178   -1.38647513426265   -1.92972240778996
S         2.61171540188194   -2.80559861605889   -1.99516801633017
N         3.58669481388974   -4.01191275101938   -2.58625293660021
C         4.83447335643807   -3.77068162763857   -2.81413516576870
C         5.69991267865281   -2.61291308434302   -2.44751755324104
O         6.89411438308543   -2.79474074390079   -2.24386348550174
H         3.96912548646109   -1.40725342221451    0.84238798278265
H         3.46530929735044   -0.02603880172120    1.96021831629136
H         4.74235246342663    0.15352257814366    0.67556478915181
H        -0.28758717789421   -2.38366265840633    0.94829722333090
H         1.11248900980394    3.41966612075988    0.74083672289893
H         1.80118020550989   -0.26749696742088   -1.98040846642960
H         2.99477217888186    1.78261730774187   -2.42177719362211
H         5.26554001177386    1.92370482067454   -2.46190631954856
H         5.39444330867454   -4.63696828153902   -3.19980535909717
