26
 energy: -46.155289865229 gnorm: 0.223537007016 xtb: 6.4.1 (79825abcba525fcdf90b791dcacef51065a7a4e7)
C         3.85208393798599   -0.15010867717864    0.83095258327744
C         2.58562917797665    0.15558045464911    0.00122661203818
C         1.42402606373034   -0.77031679563615    0.32342208943859
C         0.46791555888871   -1.48347271126143    0.85001311753684
C         2.10168453597817    1.55363143085350    0.16914972761601
C         1.51609976060827    2.59701818899376    0.24093865286051
C         2.80503694103828   -0.12929702745938   -1.54880748386826
N         3.63759044170894    0.89818832935275   -2.19831221594421
C         4.99493265550722    0.77600784278919   -2.16657194732773
N         5.60673130560963   -0.35501470129629   -2.09159875234168
C         4.82002214109218   -1.48929752652074   -2.06212393616307
C         3.49910234544096   -1.47154297985321   -1.80479455387012
S         2.54788457918699   -2.92656078121163   -1.69681466790259
N         3.58524225727481   -4.10256565026187   -2.24093011711655
C         4.81125633466322   -3.92528476531004   -2.60498372021933
C         5.60849593665005   -2.66723552901035   -2.53053354534016
O         6.78246875405690   -2.59371877523739   -2.87264040086114
H         3.63677131350202   -0.32803996022899    1.89231156619403
H         4.65084029791749    0.58377256355964    0.67708092260643
H         4.21731287629088   -1.07661738674688    0.37331808545572
H        -0.44049602122990   -2.03564758508674    0.93102508093337
H         1.19628492387957    3.59826254939747    0.43405624990499
H         1.86065372539102   -0.14970267492551   -2.11181966702445
H         3.21452179422073    1.82043347683629   -2.24472055209136
H         5.57968058001981    1.68785313616067   -2.37918776295942
H         5.22929817730136   -4.86569278361939   -2.99694568893680
