26
 energy: -46.152159657772 gnorm: 0.222926983849 xtb: 6.4.1 (79825abcba525fcdf90b791dcacef51065a7a4e7)
C         3.73149654220985   -0.55474723954283    0.84328163108175
C         2.51942790721858   -0.04529746106181    0.03263419938037
C         1.36093510060107   -0.97521722576267    0.35444329470397
C         0.23626669130307   -1.63480282446539    0.36466972756464
C         2.08611153505577    1.32007396448837    0.43876833122735
C         1.39966897733299    2.28321772021998    0.63337008019055
C         2.87624884817825   -0.03570248091547   -1.51800676708872
N         3.76915509475807    1.10845429444628   -1.77168292920109
C         5.02388136033000    0.92130922875091   -2.27063395087500
N         5.51464794715019   -0.19657163148025   -2.68126894900578
C         4.82412747529549   -1.36170742435977   -2.41290786682301
C         3.57563667831991   -1.34166726464759   -1.91068095196532
S         2.68300173489112   -2.79659157240207   -1.56434321716157
N         3.56191269529494   -3.93886832774475   -2.38767751661785
C         4.79448406661680   -3.78623990396198   -2.74058889305225
C         5.65924289693370   -2.57390369876593   -2.66150163637212
O         6.88348934400212   -2.54353716692773   -2.69236430967675
H         4.66022102178608   -0.01250898134117    0.62430566095255
H         3.96429178816632   -1.60426623356098    0.63212731497609
H         3.49476261068532   -0.29955079751896    1.88254662268820
H        -0.59844531810542   -2.24307089043881    0.62912662631750
H         1.04053827896513    3.28610203975925    0.71889432339939
H         1.93097860095841    0.18806097744933   -2.03342197760540
H         3.47227347551923    2.01257895265667   -1.41658177322499
H         5.58308884196303    1.86209291737106   -2.41489241084262
H         5.25074937203003   -4.71851480877326   -3.10861862829398
