26
 energy: -46.150494441884 gnorm: 0.224912326022 xtb: 6.4.1 (79825abcba525fcdf90b791dcacef51065a7a4e7)
C         3.64069574109451   -0.20877850287591    0.85724687979381
C         2.45967752079873    0.02112566303950   -0.11132874145191
C         1.44910276616532   -1.05563522012123    0.24886855817860
C         0.61101091274444   -1.81563640213909    0.89697118197688
C         1.71570878743597    1.28549754568009    0.14327169795596
C         1.26562167079706    2.39299149707889    0.23043727580041
C         2.95896482997766   -0.02805589281980   -1.62135986255837
N         3.86140349492300    1.08042134214663   -1.97858605367204
C         5.20690216424615    0.88485661081838   -2.07708053532736
N         5.73402525384605   -0.28826007810642   -2.14827772429013
C         4.97904692785975   -1.44427356082770   -2.14401626559226
C         3.65933318978113   -1.36404647365419   -1.89245708468945
S         2.58443534418354   -2.70393970210976   -1.60465077467362
N         3.52351049189555   -3.99276623276771   -2.06532861417759
C         4.73441391388886   -3.85233861342834   -2.49084835107781
C         5.60844642779070   -2.66697666712698   -2.72495500530496
O         6.59080003540047   -2.69408084259194   -3.45632409522468
H         4.31181608306603    0.65935927953358    0.83636055552083
H         4.17877957944935   -1.10343734488468    0.52510048390581
H         3.23466973625230   -0.31816783940611    1.86938163110670
H        -0.10285343217464   -2.46811081387580    1.34568764367678
H         0.81952940629459    3.36407768787594    0.23815118572488
H         2.10798899967034    0.02392723182746   -2.31590767177724
H         3.57021364870359    2.00189360452619   -1.66589728308496
H         5.82905568199764    1.79672785452591   -2.08072621757674
H         5.24862925647556   -4.81801636115187   -2.61658411891157
