26
 energy: -46.152216419205 gnorm: 0.223796639702 xtb: 6.4.1 (79825abcba525fcdf90b791dcacef51065a7a4e7)
C         3.68809869076829   -0.02679417543264    1.03638885160505
C         2.51975851023904    0.07422281744869    0.03111502318420
C         1.48639539794026   -0.96924014744568    0.42324144585211
C         0.51451894028237   -1.79970623746793    0.67979353567618
C         1.81329083933865    1.38433788660450    0.06918139590166
C         1.23259798511146    2.42524589552177   -0.05741017989865
C         2.98014851292153   -0.11067071153754   -1.48075668049591
N         3.84704599312176    1.02423421738317   -1.84298235094539
C         5.18470130346216    0.84261024582695   -2.03273059916022
N         5.74041679110021   -0.30720155061664   -2.20078917910604
C         4.95700444404122   -1.44414445434164   -2.19891198267294
C         3.66095439194130   -1.43696218781820   -1.83619250455327
S         2.66435450219615   -2.82787365078702   -1.51106843932720
N         3.67403373842970   -4.09198553939913   -1.88218702334839
C         4.77763479791825   -3.88947962243646   -2.52103764271066
C         5.48621691412833   -2.63943102474261   -2.91992558260144
O         6.32338514649346   -2.56224764475250   -3.81090598038451
H         4.55157449023623    0.58016377417922    0.73553415711878
H         4.03060433710175   -1.06736196195669    1.04974744332473
H         3.35941466626990    0.24560931140602    2.04584565861932
H        -0.10368272083708   -2.58936358133836    1.04164931408411
H         0.63422485606496    3.30526237227943    0.04050203559724
H         2.05383830035731    0.09440627877095   -2.03677069242612
H         3.44935660809594    1.95569797707871   -1.91976345387817
H         5.83508124963413    1.72025514497553   -1.87353633689671
H         5.27997896064952   -4.81421654174532   -2.84549470707194
