26
 energy: -46.149091378507 gnorm: 0.219876681766 xtb: 6.4.1 (79825abcba525fcdf90b791dcacef51065a7a4e7)
C         3.68927464091882   -0.35942306633060    0.78299749174862
C         2.41223570111325   -0.03560647934540   -0.02329838754597
C         1.24028908665339   -0.97595096716747    0.20628988398355
C         0.45067117586445   -1.95498607951167    0.54984562261585
C         1.98934454292648    1.32659112580481    0.40393440238354
C         1.69164280143914    2.46025530815866    0.65472971642856
C         2.77831802978578    0.00445038269620   -1.57129056656729
N         3.72705540244898    1.06794158689659   -1.94493708642318
C         5.03744700651767    0.90427258615508   -2.28316732195206
N         5.57774523089118   -0.25513743973651   -2.43474826590085
C         4.76280718678949   -1.35677459368077   -2.26548758205247
C         3.43941994012825   -1.30099771260892   -2.02695479382160
S         2.59614662759779   -2.81014783182312   -1.81504032096605
N         3.69211918237431   -4.04436213022142   -1.99030940367061
C         4.92880657777976   -3.89167422891935   -2.32848798488829
C         5.57147389441563   -2.57051734915675   -2.58411451820983
O         6.74189854637438   -2.40963393362319   -2.90796118335783
H         3.80694148025125   -1.43229822852581    0.98198331404007
H         3.70136961183034    0.14768894986228    1.75405928123291
H         4.60668290087359    0.02981571634224    0.32682302122277
H        -0.24082946862995   -2.75981245169676    0.65354221574330
H         1.39585160385717    3.48545759757124    0.71417744058993
H         1.83823773255790    0.17639566145422   -2.11529664679067
H         3.44662369111763    2.02168062144372   -1.73657003219635
H         5.68192617299490    1.76402984087240   -2.53627110076210
H         5.58242665118262   -4.77567469512596   -2.39239719717669
