26
 energy: -46.156241572135 gnorm: 0.223135368499 xtb: 6.4.1 (79825abcba525fcdf90b791dcacef51065a7a4e7)
C         3.76502754607098    0.12205506925568    0.93434215479392
C         2.53129289361742    0.09089687358369    0.00551134366807
C         1.47407530015741   -0.92955067059720    0.39460671488283
C         0.62043768320097   -1.73678219844103    0.96004180970477
C         1.86528652019728    1.41916854534025    0.10078470784242
C         1.44834375299776    2.53874627425770    0.19785969196127
C         2.91460347107707   -0.11652391887223   -1.52483184083526
N         3.73417309955126    0.97960848800417   -2.07029243340405
C         5.08370365202954    0.79945521832137   -2.13830339425472
N         5.65203426187528   -0.35234754334285   -2.23567525071772
C         4.90031614058261   -1.51035461085591   -2.21786780252153
C         3.61861572736457   -1.44720179160284   -1.81213571387921
S         2.50824447204427   -2.78907633600074   -1.81182583938726
N         3.45410492608249   -4.04337263156660   -2.34778183931804
C         4.69364467943397   -3.95263302136605   -2.69761263122957
C         5.60069327715457   -2.77332493890913   -2.59604005072069
O         6.80800302714034   -2.84588384076193   -2.79044263954550
H         3.61350562096147    0.79000515570549    1.79188850902774
H         4.64024825967489    0.53161029810944    0.41808339544572
H         3.90256649617496   -0.91748482584242    1.25321476746113
H        -0.08356205662334   -2.43986455961998    1.34309687905225
H         1.14213049017417    3.55512402958087    0.32145542674938
H         1.96488538422805   -0.08732217675380   -2.07840350410259
H         3.30190882936510    1.85205188657310   -1.78103986877229
H         5.62846338945404    1.73639244573283   -2.34802444791366
H         5.12336823485825   -4.90457881196375   -3.04675055438302
