26
 energy: -46.149826953283 gnorm: 0.224516632911 xtb: 6.4.1 (79825abcba525fcdf90b791dcacef51065a7a4e7)
C         3.66749266651553    0.10390027565498    0.92260813934599
C         2.46387783219600    0.10752832101669   -0.04542950497690
C         1.59060517143692   -0.99452617043449    0.53188166727491
C         0.63684898660602   -1.73419135395039    1.02511723078985
C         1.91670910337301    1.48963732873234    0.04017544773432
C         1.73093730235745    2.66431349552679    0.18965406453563
C         2.84117152949584   -0.11769843525938   -1.57475060123492
N         3.73222498563731    0.99012879956538   -1.96136468117784
C         5.07907863569233    0.79955332791833   -2.05069351083072
N         5.61957769061665   -0.34950699700199   -2.26668357202771
C         4.82936700094107   -1.48092144966833   -2.22371831342259
C         3.51048261480788   -1.44197583723827   -1.95840722020807
S         2.50117954679432   -2.86137725875171   -1.94581229805537
N         3.49886535462675   -4.11620418218743   -2.37615222405397
C         4.77808040286205   -3.99658071550160   -2.50410984133016
C         5.58283326532756   -2.74116062492742   -2.49338895077848
O         6.75133960048884   -2.80449635628036   -2.85565339964055
H         3.28299921505120    0.42128367008096    1.90032718507277
H         4.37432096479403    0.87138399831128    0.58849380971712
H         4.05479848484572   -0.92138968437173    0.92642940420223
H         0.07775101371107   -2.49044051008657    1.52728084677305
H         1.28974128052218    3.63486100347337    0.26347693492334
H         1.91992974605432    0.05966265565760   -2.14843639316589
H         3.26092205824539    1.86755494971018   -1.76218177453845
H         5.59170249147373    1.76044300306367   -2.23098570776034
H         5.29373533019081   -4.92733904236199   -2.78792201205180
