26
 energy: -46.153149223856 gnorm: 0.215978414721 xtb: 6.4.1 (79825abcba525fcdf90b791dcacef51065a7a4e7)
C         3.79708113709061   -0.42361213331948    0.86955304990853
C         2.51833634630343   -0.07374276118165    0.07696116951430
C         1.30500349066349   -0.91385401255946    0.44090336557093
C         0.15700887524148   -1.49426867887343    0.22815007942644
C         2.05547132198034    1.28050754321706    0.48770345974629
C         1.89154593599025    2.34627451762925    1.01114242070527
C         2.77410096761010   -0.16782090702087   -1.49072324003348
N         3.48947669488990    0.98925435559325   -2.05653441773592
C         4.80442605520270    0.97790066839864   -2.41582910115859
N         5.49749752639937   -0.10126256908155   -2.53494753631886
C         4.85982228128172   -1.31062855986624   -2.34212176127090
C         3.58914564638124   -1.39714088156780   -1.90708239105074
S         2.61204323335401   -2.83862941639031   -1.87653103004203
N         3.69451108209117   -4.05509695571188   -2.19844734083845
C         4.94370582815593   -3.83365662545532   -2.43834466124508
C         5.68697544788010   -2.54259120064640   -2.50559076948164
O         6.87108929171011   -2.58249951720907   -2.81693579031639
H         4.64382678255505    0.16871104741926    0.49985449042340
H         4.06929494398110   -1.46102885093467    0.64608920825223
H         3.73542286493530   -0.13776134758707    1.92583307084760
H        -0.70145621897105   -2.06986256870740    0.48968591243258
H         1.80829529216689    3.38144581814965    1.26324542129068
H         1.78960337754195   -0.21253770828686   -1.97859993768744
H         2.98075647177098    1.85356550982594   -1.89576474311615
H         5.25203655172304    1.97782707205309   -2.55143694829779
H         5.52809823206556   -4.74273303784866   -2.65006619321294
