26
 energy: -46.149744032477 gnorm: 0.231439759314 xtb: 6.4.1 (79825abcba525fcdf90b791dcacef51065a7a4e7)
C         3.97238464613498   -0.25265608657372    0.86106723943464
C         2.67691187748811    0.01121260507732    0.06236684595040
C         1.73522679326331   -1.07502662804517    0.55605803206223
C         0.59364985339935   -1.65101684340137    0.81115437500396
C         2.00687177857869    1.31897100557846    0.30270279626434
C         1.59546735917324    2.44229719814842    0.22784436025581
C         2.73948755172693   -0.10964970740928   -1.52299659326141
N         3.49814910126589    1.01019010291408   -2.10705081965132
C         4.83041278076033    0.86987076623543   -2.35943420452037
N         5.53542624797831   -0.20403578660907   -2.26556571302518
C         4.76423859867993   -1.34074692023474   -2.12579800021473
C         3.42330797872936   -1.38777739819655   -2.02065068702641
S         2.47635112295284   -2.84681968151025   -2.11020528403727
N         3.56056281948363   -4.05388425894133   -2.46040541214230
C         4.83302911607114   -3.84554793323413   -2.52748416102208
C         5.58175143443069   -2.58105959399295   -2.27389821604558
O         6.80606571493340   -2.55689387106035   -2.30743264934288
H         4.78457200372639    0.15093044773989    0.24302875411256
H         4.07975876379303   -1.32432585581044    1.06172763182784
H         3.99665062747299    0.24744498287024    1.83602876609363
H        -0.13455079378786   -2.31513968241036    1.21777004944318
H         1.24017985657589    3.40009712370781    0.54162183746548
H         1.69165443241098   -0.01226862193184   -1.84209132257933
H         3.10165548547091    1.94368362579016   -2.05173735287705
H         5.40438006917612    1.78718956310178   -2.57780370423219
H         5.48391581539614   -4.72880815070175   -2.62213248196601
