26
 energy: -46.149182036132 gnorm: 0.222465351396 xtb: 6.4.1 (79825abcba525fcdf90b791dcacef51065a7a4e7)
C         3.87616594352235    0.01114767477464    0.89407405716899
C         2.57443799517171    0.13801534523147    0.07236385925208
C         1.53629726498083   -0.90748323693516    0.44601341078979
C         0.67610829321694   -1.88269697792720    0.35077755503302
C         1.97718368154352    1.49321131802962    0.22624141704949
C         1.17982558869044    2.37706048385748    0.36677555565761
C         2.91551290923665   -0.11022929753161   -1.46189268777007
N         3.62711121103241    1.05531902097246   -2.01493233852327
C         4.97589192814337    0.86641154567084   -2.07339552854568
N         5.61519291554846   -0.25108898101451   -2.11361218484572
C         4.90528717535605   -1.43441254079062   -2.06717090233114
C         3.58877353824133   -1.44787561068266   -1.78793383602261
S         2.57553403150813   -2.86182212635690   -1.70045439135345
N         3.48547328048032   -3.98129557016483   -2.52139884844726
C         4.73688982634695   -3.86368707259424   -2.81669350082705
C         5.58911074171442   -2.66791820143427   -2.55654350332201
O         6.79034033095453   -2.82579224448690   -2.73758839727315
H         4.17849627243710   -1.04136336711830    0.96700444800781
H         3.76018167333960    0.45341852319813    1.88967138297776
H         4.71768792423051    0.46604558946373    0.35914551804065
H         0.02420114422537   -2.69375435219817    0.58288665948537
H         0.59028539902720    3.26550221084833    0.43874690611676
H         1.92494366272725   -0.09050712102244   -1.93901151615342
H         3.27201087774071    1.99392585015876   -1.85809517305720
H         5.49359277713538    1.83945138474385   -2.13485089372210
H         5.15104320869002   -4.61402545503976   -3.50823504009933
