26
 energy: -46.153734904697 gnorm: 0.220616930897 xtb: 6.4.1 (79825abcba525fcdf90b791dcacef51065a7a4e7)
C         3.83009866687896   -0.12916737445146    0.78736450617599
C         2.53742295236878    0.08681224593649   -0.03003440697442
C         1.43795548128379   -0.86929864595762    0.40290977942534
C         0.29996426878198   -1.50534472376968    0.38150536421379
C         1.97113686785879    1.44669862150137    0.18670559298861
C         1.54358790065760    2.45836260234558    0.66676493375869
C         2.79418570665010   -0.16356182997750   -1.58028804391144
N         3.55958447085442    0.94111902124814   -2.18408670314272
C         4.91445430198419    0.86099149733746   -2.31144726603462
N         5.57493379389485   -0.24470146867693   -2.32989889884347
C         4.83234708359083   -1.40576264506640   -2.24695606245936
C         3.58127652577637   -1.46701509359980   -1.75458086748451
S         2.64122143866967   -2.92968321686158   -1.65235519902289
N         3.64779717606988   -4.12964620279138   -2.20194972199122
C         4.87951009173021   -3.93548194165828   -2.53699834947932
C         5.62562296440555   -2.64483431345859   -2.50003944460276
O         6.83011012718056   -2.51945212478915   -2.68482031585289
H         4.63823462159401    0.33110659378510    0.20464149074883
H         4.14813509561545   -1.16378423186255    0.95674771077954
H         3.77397019068599    0.32092393708986    1.78511562658357
H        -0.53910055120628   -2.14291080270542    0.54321914478901
H         1.18819907799363    3.37620452450349    1.08309556142822
H         1.86981974610385   -0.19227461418995   -2.17525182894133
H         3.12532557871143    1.84479134531566   -2.34679031516291
H         5.45739364346024    1.80551170327290   -2.48948070828281
H         5.42638283092030   -4.86819867704798   -2.74611578541745
