26
 energy: -46.151489617085 gnorm: 0.216791413013 xtb: 6.4.1 (79825abcba525fcdf90b791dcacef51065a7a4e7)
C         3.85333361833130   -0.04993733151842    0.80173742542773
C         2.52222316591852    0.11626689274998    0.03602219848069
C         1.61127249831997   -1.04762746718928    0.39089713544141
C         1.26687402220671   -2.15636272845843    0.98430472873658
C         1.90563106646774    1.46435403197083    0.17538630076703
C         1.23556500381413    2.45030544865390    0.30040778457025
C         2.85697497738631    0.01233206558342   -1.51608585471931
N         3.75367209082114    1.11035037802128   -1.91735627137527
C         5.08920802894007    0.84430486458072   -1.97962133079457
N         5.58053046092161   -0.34448270903581   -2.04682943030159
C         4.75980798484265   -1.44923632723053   -2.15778733807147
C         3.43106221323313   -1.33104416984637   -1.97938324784212
S         2.39810613005955   -2.72307083177766   -2.14913362101511
N         3.37611347148343   -3.99043869755754   -2.58781386400927
C         4.65501524802220   -3.87043291259272   -2.71851547107270
C         5.53078824087525   -2.69224736875923   -2.45636632040978
O         6.75500239288529   -2.73077498566602   -2.47803005511264
H         4.69388493327363    0.43411793864498    0.28825330679287
H         3.99298489251519   -1.13506887939063    0.85880699653948
H         3.77668760780475    0.32136835718932    1.83008433676844
H         0.85676000520273   -2.94546473703933    1.57234906160797
H         0.69847994127418    3.36187350752643    0.45090532201590
H         1.87068522867817    0.12452561921315   -1.98927070608697
H         3.34767852718043    2.04020574607377   -1.87029097833848
H         5.76139523676312    1.71391649987567   -2.08227325453475
H         5.17936065852741   -4.81938538637819   -2.91167732281242
