26
 energy: -46.151843619514 gnorm: 0.225427773421 xtb: 6.4.1 (79825abcba525fcdf90b791dcacef51065a7a4e7)
C         3.64839017587870   -0.50873384509522    1.05064816906268
C         2.49811740675002   -0.07371797354633    0.11607210363059
C         1.23509498923046   -0.91638859201896    0.18747242161917
C         0.16592970347043   -1.66116714333803    0.14027871827306
C         2.05793246216256    1.28742913335872    0.52894359887340
C         1.65295108576117    2.39311941212372    0.75290383609040
C         2.96297367326688   -0.06554868711370   -1.40568428979519
N         3.69500404890119    1.13839724460141   -1.83623461269255
C         4.86574209443353    0.95472293299952   -2.50999240424531
N         5.50728418475168   -0.12232519106466   -2.80583296663587
C         4.88774607787023   -1.30408655784945   -2.45088199645800
C         3.69481220743247   -1.34385397609088   -1.82903791325081
S         2.73606241494818   -2.77682328607566   -1.58215842388172
N         3.63029066020116   -4.03470684830605   -2.19309607640239
C         4.86871309411381   -3.87155829779812   -2.51984748306423
C         5.61935216262788   -2.58978308514285   -2.65181332318171
O         6.82510766503624   -2.59661729879025   -2.86805613982450
H         3.94185969819232   -1.53219898897032    0.78438383133467
H         3.32454206431021   -0.53693424292002    2.09687807760171
H         4.47576329802822    0.18332737502948    0.85636775455438
H        -0.71133872585833   -2.26127541900877    0.22359603768658
H         1.29886331862203    3.29691701612551    1.19993621122265
H         2.04539682983329   -0.04831973611717   -2.01150164274424
H         3.27014047527586    2.05806976352423   -1.90951705979336
H         5.36224055244629    1.86206795166332   -2.89575367020338
H         5.43429565308798   -4.78170867300940   -2.77382203202457
