26
 energy: -46.155010650390 gnorm: 0.215427147892 xtb: 6.4.1 (79825abcba525fcdf90b791dcacef51065a7a4e7)
C         3.72730833893191   -0.36911516340506    0.76098147738247
C         2.48125046424468   -0.05571094499253   -0.09629109828438
C         1.33958378924859   -0.95463715010031    0.34974289616804
C         0.16844294548581   -1.21386103070342    0.86088757215052
C         2.08159431911742    1.33912108783389    0.23787308480640
C         1.92969158312755    2.46992540696539    0.60519619045041
C         2.68580970332297   -0.15390029479719   -1.67122443233080
N         3.46297616294537    0.99249694885641   -2.17373168390457
C         4.82179979683855    0.88336028159526   -2.17277268466507
N         5.49100924242895   -0.21703361918838   -2.19332849551698
C         4.80552264382665   -1.41314910190884   -2.26944339010844
C         3.47491522395378   -1.40657835128078   -2.06744472587273
S         2.63994081361409   -2.93303991993223   -1.98816978265389
N         3.80377338018702   -4.11598988231045   -1.95234844643932
C         5.05164505712002   -3.86146438464778   -2.16473277561869
C         5.70800392909024   -2.57333896981762   -2.53044801712666
O         6.83238671959644   -2.49533425175585   -3.01037779181280
H         4.53046287145581    0.33740746259334    0.51548089151012
H         4.11506718130950   -1.37157429821720    0.54887619248181
H         3.52905777963083   -0.35596072639460    1.83883284565454
H        -0.61014686413869   -1.88234421522232    1.15002382643598
H         1.77211609217860    3.47276449533783    0.93918711228987
H         1.74703048058400   -0.13634769970765   -2.24362659823284
H         2.98487571769234    1.86573806856414   -1.97236923001889
H         5.32350854887537    1.86267646375667   -2.26123511958811
H         5.69944747166595   -4.74980928474004   -2.22762775431875
