26
 energy: -46.153106803692 gnorm: 0.222307781370 xtb: 6.4.1 (79825abcba525fcdf90b791dcacef51065a7a4e7)
C         3.80327497248939   -0.21838622109930    0.90815276637261
C         2.51869397452510   -0.01668311655901    0.07450643157734
C         1.37090367799171   -0.99235273532375    0.27714814564293
C         0.42893402923947   -1.89358852846403    0.25469842256428
C         1.89931549078353    1.28519618308794    0.44656518315455
C         1.19461016782021    2.21120340035726    0.73400240116757
C         2.88311774560698   -0.02074593256073   -1.47438977061586
N         3.72118120252738    1.09767499261907   -1.94077175606358
C         5.06166777631841    0.93994760482829   -2.13190316061646
N         5.66989533976523   -0.18638212706890   -2.27532954242985
C         4.90203999142855   -1.33379533434358   -2.26054112782115
C         3.61256829803887   -1.30742867808332   -1.87592404241045
S         2.60915271985293   -2.73101901714877   -1.88589568987654
N         3.60065702354888   -4.02482962363520   -2.19915813458786
C         4.86289291618617   -3.87028664181270   -2.42265551745909
C         5.59573006184779   -2.59358492811559   -2.66099174169581
O         6.75619235644516   -2.73510878978051   -3.02698662507596
H         3.94890213392934   -1.27822750274826    1.15316531080348
H         3.88229025087472    0.38100813707237    1.82180087952820
H         4.62024262380618    0.17297446134767    0.29119201183769
H        -0.40310936270503   -2.55823616109228    0.30587403493767
H         0.78261922404566    3.18963086491454    0.85651512950066
H         1.93865199950179    0.05577218914922   -2.03241145397253
H         3.35796881246824    2.04541259685345   -1.90143836042237
H         5.65861607807027    1.86828248071583   -2.15298732409431
H         5.46333994415270   -4.78447428594871   -2.55104839314778
