26
 energy: -46.150535978005 gnorm: 0.236950184458 xtb: 6.4.1 (79825abcba525fcdf90b791dcacef51065a7a4e7)
C         3.94987851227796   -0.42774161091725    0.67467628343491
C         2.67981781044923    0.04393957024637   -0.06711976957416
C         1.57819301638414   -0.89718519377641    0.39236304458199
C         0.49564771542057   -1.52911654924320    0.75124354923649
C         2.14412711454415    1.38349965995620    0.30106684502944
C         1.86879049985782    2.50468038968427    0.62334410948609
C         2.69389272766323   -0.13731903612708   -1.64789422396491
N         3.42368973311533    1.00813840228471   -2.21890340222193
C         4.76011448039421    0.93586582784399   -2.47786087318297
N         5.44606521747024   -0.15433605238557   -2.48573550168714
C         4.79952254646719   -1.35904125401449   -2.29326327912213
C         3.47370493480526   -1.38943081259873   -2.06381416796378
S         2.51705340291122   -2.84184120626858   -1.96961434444821
N         3.58972543592227   -4.05958455628678   -2.31837769268604
C         4.86150083245750   -3.87811573946641   -2.44772401696856
C         5.60869535648201   -2.61050714490736   -2.20546279487910
O         6.78513623725190   -2.63387599408855   -1.86473600160248
H         4.84595211330404   -0.19128788597222    0.08676157857148
H         3.87838459290276   -1.50782502204907    0.84372756368054
H         4.04871348978460    0.13604490759180    1.60935072317128
H        -0.31142131661857   -2.17281292960836    1.01763833487531
H         1.47371648901444    3.42955371972035    0.98471934285535
H         1.63554501450960   -0.07608740843855   -1.94014338827513
H         2.96733780462160    1.89198239292756   -2.01338054492582
H         5.34436005411981    1.75829767822945   -2.92603541717424
H         5.51072337722627   -4.72055963839974   -2.73330899206412
