26
 energy: -46.155319329334 gnorm: 0.222376571078 xtb: 6.4.1 (79825abcba525fcdf90b791dcacef51065a7a4e7)
C         3.74119220224111   -0.14626534160793    0.88892971191249
C         2.46732818259702   -0.04941646939786    0.02077681064595
C         1.41526626762806   -1.08447583243382    0.38441850118334
C         0.32298796941629   -1.65430484467797    0.81133744438115
C         1.91400020200237    1.31079534439440    0.26694566033491
C         1.48449459150177    2.41148751142504    0.46873960789351
C         2.83174448407367   -0.17537336397992   -1.52299657593712
N         3.67959532697102    0.97139559094925   -1.89285844948451
C         4.99818632129331    0.93498295898533   -2.23681383872739
N         5.65431127698193   -0.16690157109639   -2.35715122672583
C         4.95160681069557   -1.35111046073393   -2.25599125928124
C         3.65314289814155   -1.41097042774329   -1.90703423335171
S         2.57527941833947   -2.77907694707743   -1.90020901715954
N         3.60616462516669   -4.04069932550257   -2.21761206651732
C         4.85266351193867   -3.85646110841863   -2.49934042183556
C         5.65903605229862   -2.60952511135569   -2.63621865219407
O         6.83704689783822   -2.71259645865125   -2.95609478783717
H         4.58961923580349    0.33189051323011    0.38292525537746
H         3.98689550023547   -1.20939663417337    0.98717244728295
H         3.57366078244233    0.39277351734509    1.82840309149696
H        -0.46881425391121   -2.26414321688657    1.18257594732574
H         1.12523469723315    3.36352848403189    0.79526146588926
H         1.91307593078605   -0.10126614507718   -2.12284237260241
H         3.18519302858247    1.84962597605001   -2.01917030323182
H         5.59206183905682    1.86091665026256   -2.32931318171448
H         5.40750363909068   -4.79699693802217   -2.64183673661069
