26
 energy: -46.150357717392 gnorm: 0.225072221573 xtb: 6.4.1 (79825abcba525fcdf90b791dcacef51065a7a4e7)
C         3.67035411709736   -0.36184792288693    0.91367144297002
C         2.45989833565259    0.05032147157078    0.04723513455955
C         1.27968649200117   -0.89965345024036    0.16997500732090
C         0.30875389554499   -1.76205907698601    0.28652193517995
C         1.95522695251624    1.41704171193197    0.35436652366846
C         1.45475781859509    2.47707067810748    0.60454313278724
C         2.87484212345213   -0.05341086616331   -1.48539720601255
N         3.70626182403092    1.05769910746135   -1.98027474975485
C         5.04574798484891    0.92089487178539   -2.19328841394958
N         5.63984366741055   -0.22197123631367   -2.18712907931864
C         4.92484160890515   -1.40285182138653   -2.16123110552141
C         3.63606635433067   -1.35128737795542   -1.77683260878156
S         2.65224793383283   -2.78766027205225   -1.72697345087779
N         3.66672697350394   -4.06566400835915   -2.03143815675916
C         4.91108345916717   -3.87211391799852   -2.31637562320913
C         5.63376683758991   -2.61556863811547   -2.66658184604951
O         6.62230446793251   -2.66213686891337   -3.38857820720387
H         4.22874612467910   -1.18242533179665    0.44532003625780
H         3.43994671768475   -0.66148161853621    1.94197196443297
H         4.35520155034938    0.48526347185700    1.03461015767766
H        -0.29235737391479   -2.64098137709746    0.33974274982204
H         1.11665420536556    3.48360385620919    0.72555184894097
H         1.92558906862995    0.03183820698063   -2.03394984640307
H         3.26322162940954    1.95034867839235   -2.17666479676478
H         5.64568473939662    1.83152566253599   -2.36482531876068
H         5.61913771609682   -4.70786531439547   -2.43012617424988
