26
 energy: -46.149962141347 gnorm: 0.222714798546 xtb: 6.4.1 (79825abcba525fcdf90b791dcacef51065a7a4e7)
C         3.85455541390204   -0.05768692881858    0.80063181793931
C         2.56495333679067    0.11052053844593   -0.03269370634218
C         1.57605419196661   -0.99342700430664    0.30464254714524
C         0.51820791889481   -1.72758399936122    0.50960971885630
C         1.83944787771366    1.35024242908095    0.35932489279080
C         1.23496621118347    2.27383858840871    0.82654128144392
C         2.87036426854685   -0.04027746389696   -1.58700537370958
N         3.71704827853161    1.00666155758082   -2.18514644893691
C         5.05895548455308    0.84211591054057   -2.35985527928762
N         5.60518482890090   -0.29882031264210   -2.11689726270386
C         4.87611136043143   -1.46752454928204   -2.02224053509283
C         3.54355366167347   -1.39192130394308   -1.84921775793047
S         2.49150941919803   -2.77554268867160   -1.96033248094983
N         3.54720374077803   -4.00123954970317   -2.33226894338687
C         4.81831991761112   -3.88807751313676   -2.52856483686490
C         5.67183242030560   -2.67161205120596   -2.40386563140488
O         6.87664714485884   -2.65892428472455   -2.62503184144479
H         4.46014751938061   -0.88641222797415    0.41207739203991
H         3.61377053108744   -0.20340430191475    1.85943254321070
H         4.53126559488211    0.80310373340788    0.75223076069113
H        -0.20712911683383   -2.37737543787502    0.94357849781585
H         0.73375880959164    3.19348404760000    1.03893142803616
H         1.84808277379647    0.07371914300451   -1.97585506855563
H         3.18863276770061    1.85541747419315   -2.36422007638033
H         5.69407899258145    1.65199018400623   -2.75900343000360
H         5.39490108526520   -4.78411413270181   -2.80683259733729
