26
 energy: -46.151390740521 gnorm: 0.218614778946 xtb: 6.4.1 (79825abcba525fcdf90b791dcacef51065a7a4e7)
C         3.92122326629916   -0.34396178549039    0.81533319002598
C         2.63236433103112    0.02752626579948    0.04941022085789
C         1.57715399602848   -1.04582018909526    0.26124981566656
C         1.09228979994024   -2.09008866600526    0.87317044324877
C         2.13831684047683    1.40105982679949    0.34312742619798
C         1.35296906910834    2.29815219362148    0.46630735824563
C         2.81869645587788    0.02383388262582   -1.53083260359907
N         3.65143366556031    1.12603877356737   -2.04310305172118
C         4.97191516530024    0.96254814061175   -2.33960401773038
N         5.54933863841937   -0.18877918117705   -2.35217748711156
C         4.79417732472298   -1.33629255541744   -2.21317370697006
C         3.47704840240424   -1.29857435178544   -1.93910893548253
S         2.40681760380258   -2.67026185202643   -2.02054083076369
N         3.39849902730500   -3.88529313991883   -2.56407275534545
C         4.68582687471585   -3.80104835148013   -2.61664544994198
C         5.55300582593549   -2.61079581658687   -2.38186625587852
O         6.75375641306930   -2.76853228349627   -2.19755340340932
H         4.80215774680685    0.27700814973281    0.60832414628466
H         4.09690685855547   -1.42366327352985    0.75491907541788
H         3.67430573108052   -0.25265182747975    1.87925711837676
H         0.46755685196546   -2.89943444944968    1.17539517286576
H         0.85662176469458    3.21642003433227    0.69541376454826
H         1.79707449410656    0.11467468453616   -1.92743730702310
H         3.17346093492874    2.02215884826104   -2.02939876913029
H         5.57141295633669    1.86336067281651   -2.55809117560472
H         5.16992143722909   -4.74974366991112   -2.89662769619022
