26
 energy: -46.154483187709 gnorm: 0.219337731080 xtb: 6.4.1 (79825abcba525fcdf90b791dcacef51065a7a4e7)
C         3.74485587106222   -0.33896768592262    0.77271953942600
C         2.47390822397277   -0.03806981997938   -0.05187201933078
C         1.39254118431302   -1.04403787051030    0.30742035597317
C         0.66067656471302   -2.00495065831791    0.79839646405344
C         1.92866717260637    1.32089991956174    0.21805492965520
C         1.39554538905528    2.38107111749583    0.38698478611295
C         2.87790751837551    0.02221626914699   -1.58974417895472
N         3.80207737208199    1.14144913353354   -1.84263891543223
C         5.12349890913813    0.91831117934386   -2.09237470623941
N         5.63428000565194   -0.22637441817033   -2.38890144880258
C         4.83770326408993   -1.35393654805451   -2.36776541375468
C         3.53064926602141   -1.28422028577681   -2.05453670408113
S         2.48913073470094   -2.67282226852399   -1.91109550674228
N         3.49043527476658   -3.95481973661681   -2.24129504600338
C         4.76706369529344   -3.86420580378818   -2.41183256877666
C         5.59755420267260   -2.63015891874228   -2.51783018558127
O         6.79687034064856   -2.61894461936926   -2.76716737230035
H         4.54299606073200    0.39483506635273    0.60240302312778
H         4.12598700230265   -1.33357550657276    0.51627416218075
H         3.51305922175918   -0.51768910569910    1.82892447278715
H         0.09609212295453   -2.82892278032778    1.17120468012289
H         0.81102356339240    3.24186822590722    0.63076496603938
H         1.98455553600232    0.22530740604303   -2.19796698867941
H         3.44265574662351    2.03856938083462   -1.53011967137426
H         5.80480402021149    1.78687012473812   -2.09748925930162
H         5.36416968659417   -4.78775495305341   -2.35454545476337
