26
 energy: -46.146827715751 gnorm: 0.221709721045 xtb: 6.4.1 (79825abcba525fcdf90b791dcacef51065a7a4e7)
C         3.86892414710927   -0.26520375830027    0.77982923340514
C         2.54646847233207   -0.09505565213120    0.00011177585589
C         1.44248627004875   -1.07386315998059    0.36559311297688
C         0.19133930254725   -1.40638107874296    0.52083446559819
C         2.03273751484177    1.22357194637795    0.46298205404307
C         1.70620437817078    2.28438796288748    0.91549128325065
C         2.75759761352695   -0.19353631464693   -1.57393609058660
N         3.52638570340920    0.96307520982497   -2.06581263792593
C         4.82504281993311    0.93707665678015   -2.47948783069548
N         5.54873598675445   -0.12661661610848   -2.54237966588657
C         4.86771767318504   -1.31290177970233   -2.35444573350423
C         3.57824225929821   -1.42110074264360   -1.98443372858181
S         2.63748211188375   -2.85246360245015   -1.66864517271629
N         3.64048669208678   -4.04053767863676   -2.24969752030161
C         4.85550708664516   -3.82657089521252   -2.63050943520776
C         5.65134618971826   -2.56774031031812   -2.55430328019501
O         6.87607578939570   -2.59313967604498   -2.56110564028013
H         4.47585207332037    0.64902861484243    0.76195126765497
H         4.46505745374425   -1.01938196597675    0.25436733833534
H         3.61957687271041   -0.40825812443093    1.83746872007765
H        -0.78719156082128   -1.82615297564187    0.57506117498141
H         1.55831598988701    3.24285588783050    1.36441719017373
H         1.76593086906862   -0.08665539332048   -2.03700444564788
H         3.04526076412458    1.84678174815011   -2.20458753029929
H         5.40604640686832    1.86226035953743   -2.63781472653144
H         5.39086036196202   -4.72543064859506   -2.97432395672843
