26
 energy: -46.147473165671 gnorm: 0.225780151181 xtb: 6.4.1 (79825abcba525fcdf90b791dcacef51065a7a4e7)
C         3.43455996072858   -0.41499900364558    1.08240710010404
C         2.39319672095530    0.06384740478800    0.04700021417213
C         1.19516618666340   -0.87127840624612    0.07307737538059
C         0.49760208226177   -1.86382707598999    0.55087256731199
C         1.91189279350854    1.44963315713668    0.30173833068436
C         1.68482648615819    2.55798405474289    0.69761494041235
C         2.86910917908076   -0.08543671008779   -1.46400019357560
N         3.81630399321176    0.99572377775604   -1.78748415849458
C         4.96943544155165    0.89333782028761   -2.50728856132784
N         5.57678424601797   -0.23054595399617   -2.67204065822629
C         4.87969990411170   -1.37393723686590   -2.33572623033910
C         3.67854726579908   -1.35963645355730   -1.72877436413978
S         2.71183847910302   -2.80059222607461   -1.57820115463694
N         3.68254327543888   -4.03129479968633   -2.12433611824221
C         4.88193964233780   -3.89658201198348   -2.58300252698871
C         5.62489529101417   -2.61042011929340   -2.71576614938426
O         6.75150065552644   -2.53294928388616   -3.19054253127826
H         4.36917948438967    0.15324314082378    0.99246727118572
H         3.80540363715091   -1.42309585438231    0.86680191661245
H         3.07582101927796   -0.29049972522489    2.11053461987697
H        -0.36298395710645   -2.48390775009221    0.65840518651151
H         1.55127233933384    3.57279468583328    1.00484267290385
H         1.99805145323106    0.06454921713944   -2.11823365567508
H         3.27985573709603    1.85816448010255   -1.79729400202716
H         5.41332535236742    1.84484121179211   -2.84817050686049
H         5.36036747315395   -4.81892964040476   -2.94788890551758
