26
 energy: -46.152018273939 gnorm: 0.226733949265 xtb: 6.4.1 (79825abcba525fcdf90b791dcacef51065a7a4e7)
C         3.84303617007684   -0.47386676019940    0.70056649789477
C         2.57050671784930   -0.05850636852697   -0.07011063189121
C         1.29665130576401   -0.78668104055109    0.32671613900389
C         0.27078945873202   -1.44029633261545    0.79621725279196
C         2.17796016643631    1.32252110498208    0.32437316378538
C         1.74003985222452    2.40099738534258    0.61043928925720
C         2.70248069590284   -0.15884995753813   -1.65264489177920
N         3.47747242463332    0.96341231700897   -2.20999854334953
C         4.83209515597235    0.95024472337536   -2.36210793869317
N         5.51142667640038   -0.14250169603596   -2.30257219110434
C         4.85361012098557   -1.35498897633631   -2.24316202999269
C         3.53410993072839   -1.40322995321566   -1.98248062700532
S         2.60252644835072   -2.86102258299694   -1.78112380996541
N         3.70885791423366   -4.05871542461661   -2.09212633368155
C         4.96322528399487   -3.85866321552189   -2.32367690614173
C         5.70647692595488   -2.56875905556615   -2.41054428749487
O         6.88743665946727   -2.54760378602546   -2.73541433469539
H         4.51095077313434    0.39697280197714    0.69504345420281
H         4.32094251826742   -1.32131005036272    0.19686491806891
H         3.52128444688498   -0.73610324763439    1.71493711649917
H        -0.68876679533231   -1.90473891460396    0.78150278903292
H         1.36403409906289    3.36385556319062    0.88171408221108
H         1.69152588595526   -0.14759086033757   -2.08519820442572
H         3.13517062768697    1.90718914156402   -2.05575292260776
H         5.33121479429125    1.88455734507507   -2.67281192598313
H         5.54807888710158   -4.76570103529995   -2.54274096839675
