26
 energy: -46.151129765253 gnorm: 0.220272119450 xtb: 6.4.1 (79825abcba525fcdf90b791dcacef51065a7a4e7)
C         3.69019738682028   -0.43055382244450    0.91489003940399
C         2.54142706131371    0.02433873734696   -0.01203940728555
C         1.45125763535373   -1.01515540879499    0.19143047059076
C         0.29992562334618   -1.56303599902680    0.46400749219008
C         1.91753767988636    1.34988876682950    0.25371666584338
C         1.22320865549729    2.32420236266075    0.32678741532362
C         3.00233636736552    0.02495812491307   -1.53501769817728
N         3.94830464533189    1.12552135056353   -1.78924689109871
C         5.10451643535719    0.90271982914115   -2.47615821958411
N         5.53662702428633   -0.25900863728959   -2.82658362908049
C         4.83815817699094   -1.38734626349940   -2.44530541974049
C         3.58518544604385   -1.32805129823983   -1.95754913625404
S         2.60262639724985   -2.72796810788312   -1.62836477271591
N         3.63752749738831   -4.01907723863651   -1.75942564844171
C         4.86254049584921   -3.89410351219495   -2.14775383352161
C         5.58262322514955   -2.67130748067026   -2.60609042107704
O         6.78881262254699   -2.70712011868733   -2.81698989390798
H         4.28951596680155    0.46461931249879    1.12461429185669
H         4.27753313146435   -1.11445489519707    0.29232603588913
H         3.35399648024409   -0.84786117854897    1.87095667741785
H        -0.48153395813625   -2.23439304308781    0.73836542118043
H         0.62492391498078    3.20299530567866    0.43562003979155
H         2.09628709695030    0.20927729659518   -2.13029908614635
H         3.48552568489440    2.02962917247642   -1.77916699268724
H         5.70937790499617    1.75060850413054   -2.84197901519421
H         5.46257511874440   -4.80959391063966   -2.26856854622481
