26
 energy: -46.147368319374 gnorm: 0.215576552316 xtb: 6.4.1 (79825abcba525fcdf90b791dcacef51065a7a4e7)
C         3.87070581374781   -0.30647558982965    0.86674754799038
C         2.56762192195634   -0.07859300305912    0.06935140685807
C         1.30625091905167   -0.90970286432559    0.23851715306227
C         0.07249786504481   -1.32771016570391    0.18230256255790
C         2.07818768238456    1.29884085571604    0.35233063484423
C         1.60033102915912    2.38705109419040    0.50779966591047
C         2.82439159627825   -0.16970447997275   -1.49834393885272
N         3.55001315560392    0.97901329252971   -2.06812347523678
C         4.91259318140918    0.93865622747245   -2.07589419325089
N         5.54679382340631   -0.17319046337082   -2.21982835632425
C         4.82430719030853   -1.34741840575220   -2.29452375444886
C         3.56837553179032   -1.46886717218768   -1.82628384090251
S         2.67920693309721   -2.94878820593073   -1.59657829670143
N         3.84879332576144   -4.09844910929503   -1.85252263855555
C         4.98008514413606   -3.84886884908729   -2.42257752473330
C         5.58228072538148   -2.53472266582927   -2.78891342020303
O         6.66785579166791   -2.49017280559785   -3.35477212771057
H         4.60643127163385   -0.91994448867683    0.33114888944115
H         3.47936713546349   -0.82530564265535    1.74875622709225
H         4.35268735362404    0.65914576701731    1.05782106601331
H        -0.71157264924973   -2.01420445158585    0.40731514070698
H         1.26641964628036    3.40014274379877    0.57272047950145
H         1.87439446534640   -0.15039450815205   -2.05187022495477
H         3.05641555716733    1.83429836127036   -1.83037194386010
H         5.47993472179373    1.88408301782102   -2.12964565023548
H         5.63696957328699   -4.71275008764596   -2.60958678608602
