26
 energy: -46.147826530421 gnorm: 0.213368122682 xtb: 6.4.1 (79825abcba525fcdf90b791dcacef51065a7a4e7)
C         3.85734800896415    0.37510426152137    1.02474659762596
C         2.60859285088184    0.13968450821773    0.14668805491462
C         1.69042067775435   -1.01247063509870    0.52074132079027
C         0.52721553033760   -1.55178811216376    0.75765318219918
C         1.79787307904389    1.38664885673941    0.07769151132584
C         1.15371519737085    2.38691029301598   -0.06810564095547
C         2.93387286515609   -0.12915414886789   -1.38752814412518
N         3.82935862784196    0.93205582742772   -1.88014008758043
C         5.14868288152779    0.73543432387592   -2.16127510789160
N         5.71796169221299   -0.41344224690288   -2.28429877536726
C         4.91825035700060   -1.53207156567750   -2.15976833611886
C         3.62932399197105   -1.43590434192071   -1.78455714729981
S         2.55421464983064   -2.80214965185664   -1.67936511372427
N         3.44285813673707   -4.07086696185869   -2.27587929469962
C         4.63514011359899   -3.96986235856228   -2.76099352497066
C         5.54102839531256   -2.78870030042364   -2.67130343881511
O         6.72505027100098   -2.94501356032616   -2.94390636126638
H         3.45533873295085    1.00794874904417    1.82624417272118
H         4.72515049372738    0.81023254537335    0.51695519040502
H         4.12317606280698   -0.62405912764479    1.38840559928687
H        -0.15668893205484   -2.36925740102034    0.73137988381370
H         0.59912937126119    3.30019872908899   -0.04798077291100
H         1.99821840250344   -0.00599352379068   -1.95201105707168
H         3.49016294318511    1.88510429488895   -1.78891601018368
H         5.60871199785787    1.66258165972133   -2.54516114630135
H         5.05275577351286   -4.87270392981808   -3.23347068650913
