26
 energy: -46.147495819044 gnorm: 0.226172330752 xtb: 6.4.1 (79825abcba525fcdf90b791dcacef51065a7a4e7)
C         3.64575621943775   -0.36256836905333    0.85800930188970
C         2.47778720804103    0.04798291550680   -0.06562197008458
C         1.40364256418283   -1.00314939576877    0.16186776701749
C         0.29280673390489   -1.61247506099621    0.46976833242056
C         1.98081870429099    1.44462840781089    0.07348513504452
C         1.54638502928266    2.54683730568444    0.25547971125469
C         2.93151533415873   -0.07399841243267   -1.58586931695424
N         3.82118741369471    1.08359956847751   -1.78380464315879
C         5.09570224674639    0.89805900892036   -2.23045891454304
N         5.65639467583454   -0.22450767358571   -2.52131730006004
C         4.90951092080230   -1.37564695513290   -2.36827938998158
C         3.65433288121303   -1.39240587243573   -1.88288267488981
S         2.60252110605819   -2.73699586426585   -1.53745331338982
N         3.61007224042345   -4.04327908598195   -1.72082420920593
C         4.82773615818387   -3.90085088982946   -2.12589562251770
C         5.54236927805835   -2.69918130763329   -2.64465512055804
O         6.57696512522571   -2.84460983021521   -3.28427686075083
H         3.55356542270694   -0.00421832939655    1.89125083436902
H         4.47737036173150    0.12176560469757    0.33445566195027
H         3.91510631649494   -1.42492480398678    0.86745511484295
H        -0.48232476740578   -2.34330407410369    0.42815418496720
H         1.06233338134212    3.49596182120836    0.33868341692987
H         2.05088466516485    0.06324909718012   -2.23000557158892
H         3.41162001199327    1.96007955590759   -1.47442736677770
H         5.76263974638940    1.77724500660002   -2.25916102311310
H         5.40817454179007   -4.80450527606515   -2.36933030917280
