26
 energy: -46.151740053310 gnorm: 0.228477955749 xtb: 6.4.1 (79825abcba525fcdf90b791dcacef51065a7a4e7)
C         3.54296521573970   -0.57417574876811    0.81968523496566
C         2.38220157131864    0.00597561576468   -0.01808015166597
C         1.14011931797452   -0.74574708342019    0.43198878720486
C         0.16120470669956   -1.51264484500561    0.82394636579667
C         2.25588690892005    1.46542235395593    0.24839107953997
C         2.15406343943274    2.65777611239414    0.31653493481796
C         2.71943866768894   -0.16847462731197   -1.56331115785535
N         3.50296774655680    0.94889428569773   -2.11855594078202
C         4.86237170683934    0.89411391094425   -2.20419109839836
N         5.55895987604482   -0.18919924487842   -2.22230441752144
C         4.81891854573147   -1.35377852830391   -2.17258996250061
C         3.51478986444295   -1.44610198095000   -1.85307860436722
S         2.62835731459832   -2.94448605315791   -1.90440309919800
N         3.81445424723334   -4.09582483314354   -2.05524443691742
C         5.03994982600307   -3.86353512787546   -2.38882522525368
C         5.68373974376948   -2.52365122057375   -2.50743114924923
O         6.78463834730884   -2.40631387077341   -3.03174804951403
H         3.37456769432205   -0.50544421338178    1.90200690991185
H         4.45706077068860    0.01587938725421    0.69110008817473
H         3.68666173738709   -1.62045675022000    0.52661993288090
H        -0.60088280232190   -2.11847126841730    1.25853649983203
H         2.22319018976356    3.71646558941572    0.18822172291005
H         1.77482927410055   -0.16642066935099   -2.12630994569007
H         3.00254003955492    1.82040800532960   -1.97120306123158
H         5.30065460960179    1.89851364117632   -2.33718259775962
H         5.74101479622479   -4.71160355466260   -2.43408298005997
