26
 energy: -46.146790621158 gnorm: 0.218679104754 xtb: 6.4.1 (79825abcba525fcdf90b791dcacef51065a7a4e7)
C         3.67736145608370   -0.44894112072878    0.88395733277313
C         2.45374938820747   -0.12160609867530   -0.00002455795452
C         1.31795594931883   -1.12470887627577    0.11903636071355
C         0.31434900991172   -1.89207735572316    0.44145764389468
C         2.00953471122579    1.26488745109635    0.31183451896837
C         1.69330285021357    2.41625190663042    0.41707903880175
C         2.85119778332380   -0.00152668740888   -1.53609628695804
N         3.76460548058939    1.13419735318917   -1.75183957682741
C         5.00669321521988    0.91530279970812   -2.26915633991090
N         5.48523831362838   -0.16943534517790   -2.77261270377793
C         4.73724260836495   -1.31294448380842   -2.57445395693590
C         3.50974517372453   -1.29703757479040   -2.02276583769655
S         2.62774458799909   -2.74587009162871   -1.62715109833752
N         3.71975925365237   -3.98225833280384   -1.81156399728904
C         4.91267150158713   -3.81626949299659   -2.27684040568102
C         5.56130639980572   -2.54908993569960   -2.72108182958687
O         6.75255263227825   -2.52921896451681   -3.00602315215266
H         4.24635593793147   -1.22203621628905    0.35191296016778
H         3.31287412426827   -0.81471578284997    1.85020148921641
H         4.28479705112499    0.44271715584852    1.07684956011297
H        -0.58190817122188   -2.46876521480191    0.47019437632982
H         1.49546924591060    3.41919025828390    0.72859586695672
H         1.96920538047260    0.15275245309591   -2.17448967499218
H         3.49311293892858    2.06214975756356   -1.44059520648554
H         5.75878852492257    1.70160001067997   -2.08291240729210
H         5.47999792223142   -4.74934594790486   -2.13446950174403
