26
 energy: -46.151732740875 gnorm: 0.213109411404 xtb: 6.4.1 (79825abcba525fcdf90b791dcacef51065a7a4e7)
C         3.68863833896085   -0.36597130996155    0.88743509728171
C         2.45102874744771   -0.07116541598204    0.01152946513789
C         1.25983700249022   -0.97128832400743    0.29658806142625
C         0.30111570843683   -1.64307782935639    0.87068657551151
C         1.93351853257846    1.27689837028286    0.37464699919296
C         1.30382215635920    2.29666781105699    0.39113573752484
C         2.88282962646492   -0.04757538447784   -1.51977460010069
N         3.72538506338480    1.08954420396756   -1.92939301603086
C         5.05102729488856    0.92026903008187   -2.19833906917641
N         5.68663373546857   -0.18933347056163   -2.35299125789684
C         4.94027684114651   -1.34965084950601   -2.29828695183992
C         3.65192352771888   -1.31429855749311   -1.91065479660114
S         2.68647923443168   -2.74308032977165   -1.66560038163310
N         3.62685352892457   -3.99771158084297   -2.21035411978125
C         4.83459087288069   -3.85209631412432   -2.64306736949711
C         5.64148904964566   -2.60005717849171   -2.71472645598851
O         6.81476966165128   -2.70160629309557   -3.05200136858626
H         3.94793362896785   -1.41966684788633    1.05173245997185
H         3.55745062993089    0.15190812610895    1.84391853300702
H         4.64148928301836    0.00063423579771    0.48879322132054
H        -0.50892536530003   -2.33335035970204    0.93416034775774
H         0.85531126662590    3.26034343293377    0.28053063526745
H         1.94406100792563   -0.04770308985550   -2.09246319674323
H         3.37829256219032    2.03646813623686   -1.80881614753052
H         5.63378573639878    1.84308161502075   -2.36388963090873
H         5.36236718859364   -4.76076040375740   -2.97252471319445
