26
 energy: -46.152578776332 gnorm: 0.222163412906 xtb: 6.4.1 (79825abcba525fcdf90b791dcacef51065a7a4e7)
C         3.69936512654943   -0.34207781927496    0.90169990873723
C         2.48648292278670   -0.05571837252877   -0.01083157850521
C         1.25215783271808   -0.90484959562267    0.24575207052147
C         0.14217363706772   -1.50968147112788    0.56536159782355
C         2.00009532905860    1.31452887769949    0.30978768499149
C         1.82146569833156    2.48333848308034    0.50649729827361
C         2.82310360335866   -0.14150545909316   -1.56364442249694
N         3.57628652898383    1.04182627482870   -2.01438754361831
C         4.93420401836160    0.92195976550844   -2.01673481608613
N         5.52838305550693   -0.20689573191349   -2.19496808230229
C         4.80120390652454   -1.37093157062145   -2.34532981475459
C         3.55080504687964   -1.45843930837822   -1.85521979839243
S         2.70995363230048   -2.95697557754551   -1.57077360367787
N         3.83114292145898   -4.08678506847473   -2.04154437204383
C         4.98888769716688   -3.86917148655530   -2.57007575047469
C         5.57931100170722   -2.53266535816201   -2.86835981087439
O         6.63786135441675   -2.37978669388087   -3.46564806121102
H         4.52821324161201    0.37684944606055    0.87608066182737
H         4.17124655237091   -1.32599602533550    0.80421777398531
H         3.32595607055132   -0.24600790064582    1.92765124516162
H        -0.62282187928013   -2.23977762381860    0.70105644946504
H         1.62744995077714    3.52587287184935    0.63895916012843
H         1.89313817632188   -0.13134853553233   -2.15043220704277
H         3.18177851531099    1.93895055973847   -1.74753858229528
H         5.61962925893823    1.78687666026843   -1.99011788507704
H         5.54964179063781   -4.75565754006958   -2.90542292926514
