26
 energy: -46.153273807189 gnorm: 0.209597013101 xtb: 6.4.1 (79825abcba525fcdf90b791dcacef51065a7a4e7)
C         3.65592544838210   -0.18453284194103    0.95297951682649
C         2.40095009843511    0.04051562595887    0.08109147357687
C         1.32597584071703   -0.95832558382393    0.47753064612191
C         0.70102608847183   -2.10024827383292    0.55160593115081
C         1.86515145050626    1.41346363911380    0.29294210388206
C         1.49761229520099    2.54726939454314    0.41990110191765
C         2.86993250116500   -0.10772509882197   -1.43217678841722
N         3.71734365278404    1.04302054747949   -1.79051557243205
C         4.92835862077279    0.90125478798515   -2.40015367412673
N         5.61136606271907   -0.18532241748551   -2.50961312714769
C         4.97123673408125   -1.36506732977374   -2.18586324144798
C         3.69009391970781   -1.35658386074543   -1.77359648961229
S         2.63392892513271   -2.74133172803704   -1.79684659250928
N         3.47359182625500   -3.94507348932229   -2.57217362992164
C         4.74566531953102   -3.80992667196757   -2.74721198242596
C         5.65531022185982   -2.65563944609390   -2.49425180453792
O         6.86673752874657   -2.83539933238394   -2.52225638098674
H         3.91453848914747   -1.24875345878062    0.88187581003958
H         3.38276256281336    0.03465232722355    1.99105937400453
H         4.50679159931885    0.42940870270126    0.63621072241566
H        -0.01165193617875   -2.76147181291234    0.98926458314130
H         1.04052861583974    3.51115678040429    0.35616865890823
H         1.96751702948170   -0.17526417331003   -2.05695159556627
H         3.33584761992227    1.98348760573147   -1.74977967327114
H         5.36548272459634    1.84346993907478   -2.77398597075009
H         5.24932540100018   -4.65768328847044   -3.23751357851926
