26
 energy: -46.148166616465 gnorm: 0.229993626938 xtb: 6.4.1 (79825abcba525fcdf90b791dcacef51065a7a4e7)
C         3.60626684975101   -0.48479797452466    1.05272339878484
C         2.48615703202342   -0.06350323404396    0.07616647752414
C         1.18388055901541   -0.82701013523244    0.25379143875663
C         0.04473054211810   -1.45157376157648    0.36467098876845
C         1.92123694112367    1.28783566435361    0.34392683432113
C         1.40193523597163    2.33025287701260    0.62749553631769
C         2.90612970095709   -0.07331410985652   -1.45857367251242
N         3.77297596654707    1.06351549439699   -1.81483744352625
C         5.10651124753103    0.88608874552635   -2.03510273460539
N         5.67042791029436   -0.22504748480418   -2.36145351979489
C         4.88473518942453   -1.36035345557610   -2.37349111104016
C         3.61975872221469   -1.35088074400910   -1.91402669797385
S         2.74826667513530   -2.85057433569375   -1.75599999065380
N         3.84867811423518   -4.07667378374090   -1.95832358056262
C         5.05150712526982   -3.84467625030960   -2.36631080311152
C         5.59515957403952   -2.56292456315937   -2.90051706220052
O         6.48389489147757   -2.49412118196785   -3.74079655275150
H         4.58068696878040   -0.35782457417617    0.56396461741380
H         3.55399846348017   -1.57721551409288    1.11723559883114
H         3.67043387196438    0.03750541085397    2.01413988311107
H        -0.87635677988940   -1.95294287843549    0.55676153071775
H         1.21928542051368    3.37410338014381    0.76563091556944
H         1.95483575272027    0.05077566520253   -1.99606815202533
H         3.52011141437400    1.90519555518666   -1.30561144451734
H         5.72584298910634    1.79981734362607   -2.02389109077814
H         5.80104071738532   -4.64399421436346   -2.47608602854157
