26
 energy: -46.149115136969 gnorm: 0.215900132369 xtb: 6.4.1 (79825abcba525fcdf90b791dcacef51065a7a4e7)
C         3.88343378799284   -0.12403620870778    0.75910559228926
C         2.53071931605520   -0.02533810097986    0.02003797221593
C         1.58831242551663   -1.17252905813932    0.34598213942877
C         0.63937417020664   -1.83544347609225    0.94606332843191
C         1.88587025991336    1.31276235284974    0.12301373730056
C         1.29960027783013    2.33695022606624    0.33288470535823
C         2.88464597994968   -0.06409449043098   -1.53081163961556
N         3.73411375386273    1.08956783568963   -1.87460754860396
C         5.06788176473249    0.88440028959603   -2.06769450250648
N         5.63005773803493   -0.26258382486817   -2.23357451596657
C         4.84947087774948   -1.40126025253039   -2.25543211585501
C         3.53482712150835   -1.38132736407232   -1.96789563137755
S         2.45533797351119   -2.74811466361837   -1.95575631213773
N         3.48188874308458   -3.99581224722479   -2.33602501720838
C         4.71728078162839   -3.82359362333445   -2.66952362040846
C         5.62537201164823   -2.65279093295892   -2.50096180884122
O         6.84960245849869   -2.61001618473496   -2.49178943455281
H         4.50297511840052   -0.84388993513457    0.20912275918780
H         3.67707889498025   -0.50434306161711    1.76561155207603
H         4.38139081227439    0.85177503313536    0.72637760129876
H        -0.15711561428382   -2.53660634492626    1.04924416378864
H         0.82155927244720    3.29183058933602    0.37467583526414
H         1.99249925213727    0.12890990012774   -2.14406712810118
H         3.30089032729246    1.98282147065086   -1.65991630191688
H         5.76695011172612    1.73807482417936   -2.10146868189928
H         5.21265683428924   -4.77837500227931   -2.90564964513944
