26
 energy: -46.152613486391 gnorm: 0.220069226897 xtb: 6.4.1 (79825abcba525fcdf90b791dcacef51065a7a4e7)
C         3.87191667938710   -0.02034636038089    0.86421788432181
C         2.59714666843322    0.13669454161970    0.00625619057360
C         1.50112294795632   -0.83645253388727    0.40891511372867
C         0.61363768298653   -1.67467502190638    0.86694320078407
C         1.90683889919189    1.44521203362726    0.17419752349424
C         1.21287200730299    2.42238155864080    0.19059218183041
C         2.91834666676823   -0.01831687384045   -1.54445418429597
N         3.83918003293014    1.05111930757876   -1.96765630637897
C         5.14268420540693    0.78577553339235   -2.26562097384973
N         5.68020065057270   -0.38467176576658   -2.28173750503574
C         4.86832753591119   -1.48583856443435   -2.09553515269402
C         3.58408677288379   -1.38945163267476   -1.70464136268198
S         2.58426149653191   -2.81424763351729   -1.64253289060825
N         3.38695777927863   -4.03239440883861   -2.43433913802538
C         4.63031492020561   -3.94010262234712   -2.76992712771050
C         5.51347971262783   -2.76749332611712   -2.50757417400517
O         6.71422972022843   -2.80225272708580   -2.74766830711367
H         3.89715407083106    0.70373054099416    1.68858289708623
H         4.82445719497741    0.08690536427978    0.33371480326774
H         3.79228976539102   -1.02112669494660    1.30392025519876
H        -0.15137621978568   -2.41332965798198    0.94319726477725
H         0.62836169748166    3.31316828352944    0.27373613161039
H         1.96499322822091    0.06202720586998   -2.08659882167982
H         3.34792644480673    1.85610860402016   -2.34493480439224
H         5.76484716738518    1.68068942742579   -2.44066332445601
H         5.16558544761656   -4.76135997821007   -3.27170618663827
