26
 energy: -46.152572470711 gnorm: 0.221107320367 xtb: 6.4.1 (79825abcba525fcdf90b791dcacef51065a7a4e7)
C         3.77414317917132   -0.13495825483022    0.99093818622401
C         2.52830996830653    0.02422849369052    0.09185093520349
C         1.57892807611096   -1.12629304451361    0.38406942023978
C         0.55468841039581   -1.90626144101534    0.59051353414789
C         1.85681455622671    1.30722153812805    0.43821761973061
C         1.53219290260691    2.44783336694041    0.61241447745489
C         2.88214395398766   -0.03925280569980   -1.45820463218174
N         3.66994943804575    1.08572553724171   -1.99160327689123
C         4.96653592156850    0.86951829323178   -2.35275603087249
N         5.58386858468564   -0.25875648115576   -2.42365719696830
C         4.86156212751730   -1.42207840542325   -2.24664564520675
C         3.57136597943228   -1.34424351767780   -1.87154782370436
S         2.52802983815142   -2.73686243025439   -1.94647422789677
N         3.45468745230069   -3.88814383386698   -2.70213078017568
C         4.74231991459625   -3.83175189097891   -2.77892043579424
C         5.63542068871895   -2.68053122706005   -2.46129850132395
O         6.85052624715636   -2.81806559040868   -2.38879491908417
H         4.28917253494865    0.83353984879506    0.95546778912712
H         4.50682048521364   -0.79329524868516    0.51130681044540
H         3.50088029626759   -0.34597058080729    2.03115022727166
H        -0.01371011629724   -2.76846583035413    0.85546321410695
H         1.09411225348900    3.36303099717402    0.94792133139027
H         1.86541828784917   -0.02478306946644   -1.87691493319253
H         3.36916198050916    2.03060937755302   -1.77160701983351
H         5.61262576825050    1.76191606212050   -2.42197734633904
H         5.23681769000559   -4.69087478829758   -3.25864974620511
