26
 energy: -46.152459587187 gnorm: 0.227413374860 xtb: 6.4.1 (79825abcba525fcdf90b791dcacef51065a7a4e7)
C         3.70772477339593   -0.61721157303763    0.78443214925204
C         2.51800492468676   -0.04253566257617   -0.01563845650633
C         1.25068625988675   -0.83162394387249    0.27012459621223
C         0.29322832375836   -1.69918711857789    0.44518231063431
C         2.19445386899517    1.37811105303629    0.29099610073046
C         1.93767942256921    2.54450643774350    0.39252343451717
C         2.73520830886999   -0.10827711713351   -1.59056747079674
N         3.53134819879359    1.04601009655350   -2.04279549711909
C         4.89193889459721    0.99834333192154   -2.11232416349620
N         5.49650479959974   -0.12282640956894   -2.30365903531091
C         4.82243441021629   -1.32773980515086   -2.31745810812128
C         3.51269397591754   -1.36083626058459   -2.00948511871667
S         2.62168708015175   -2.83200408360294   -1.73503356835782
N         3.77700065805730   -4.01816366124055   -1.85094741438265
C         4.98123743605397   -3.85069754144510   -2.28550804088168
C         5.63402032937508   -2.54789730506908   -2.60237982991082
O         6.76883543558892   -2.52014184378053   -3.06289942446220
H         4.61610735658394   -0.59690748818054    0.16885860618151
H         3.55056555359255   -1.69391809291037    0.91200150068938
H         3.78781694139963   -0.03851691200370    1.71176037123700
H        -0.56081240898671   -2.29272742435167    0.67969447959859
H         1.51144254008992    3.48796490295997    0.65761672300639
H         1.70748170671844   -0.11078203585153   -1.98175863008014
H         3.06666679450225    1.94783744843306   -1.99324205033611
H         5.40134652876246    1.97324055970677   -2.01917528951050
H         5.63463825549111   -4.73665312443514   -2.31568224713968
