26
 energy: -46.154712479611 gnorm: 0.214899936141 xtb: 6.4.1 (79825abcba525fcdf90b791dcacef51065a7a4e7)
C         3.81489552030234    0.03552792522288    0.79270829651495
C         2.50841567404653   -0.02082767738179   -0.02932160410310
C         1.63674382582275   -1.18621011294296    0.40941452306874
C         0.56512641056605   -1.85909686789801    0.72389232711550
C         1.72054268011620    1.22282769981097    0.19321958701336
C         1.04959356915114    2.15978821457525    0.52284269982280
C         2.89203669298029    0.04153852424171   -1.57232063373940
N         3.91434107140081    1.07266409318475   -1.82212395206065
C         5.22669243014299    0.82615046847928   -2.09649293198845
N         5.74333751859979   -0.34816119162271   -2.21138651387629
C         4.87543712655950   -1.42016092241457   -2.27418050508627
C         3.56248210544460   -1.26002111699976   -2.02544953868651
S         2.51440556100969   -2.65099615682698   -2.00884528886405
N         3.51025678633254   -3.97776919505067   -2.06464553764963
C         4.76118782967829   -3.93361222966744   -2.38134056712772
C         5.56957019568341   -2.70025470872573   -2.60308109605843
O         6.72018932134780   -2.69653792177626   -3.02345688189552
H         4.43511253478425   -0.83090454726501    0.52978703793904
H         3.57121268022746   -0.04842292494832    1.85752791408855
H         4.38000974063888    0.96179426048853    0.63805872555381
H        -0.19874908143500   -2.56206908658892    0.96678307390879
H         0.43153551110665    3.02076420770081    0.65992218109316
H         2.00858994867052    0.28142160985619   -2.18161261020485
H         3.61570896363704    2.04337483274178   -1.80741182589068
H         5.90797110277489    1.69471845976617   -2.08967596432197
H         5.23759102608857   -4.92270377126860   -2.29474770957142
