26
 energy: -46.149875021058 gnorm: 0.214672607806 xtb: 6.4.1 (79825abcba525fcdf90b791dcacef51065a7a4e7)
C         3.68733728944103   -0.58984593825388    0.96153566442117
C         2.52542166429759   -0.03932040196157    0.10557280652011
C         1.24610064971856   -0.82586202251829    0.34032260246083
C         0.35933808149150   -1.73252242461903    0.03757544475867
C         2.19091998666763    1.33488809959708    0.57098310782192
C         1.89243953864722    2.48117555293042    0.75443229770879
C         2.81613668157166   -0.08151546889383   -1.45827021226436
N         3.52479419229964    1.07774424308270   -2.02805027505930
C         4.78220553616639    0.97693564747781   -2.54483623557190
N         5.39455740533178   -0.14721210838906   -2.68783121677061
C         4.85143787047151   -1.33485119588403   -2.23959894686232
C         3.55633776549284   -1.35746330942803   -1.87413054733779
S         2.62812170159851   -2.82557524412224   -1.74523530394789
N         3.69419124295705   -4.03167792274272   -2.15016997504731
C         4.95288987391367   -3.81477078230911   -2.33912262784484
C         5.71176268414727   -2.53610018184481   -2.45285585492215
O         6.88186254438091   -2.50149385530153   -2.81385821947897
H         3.51947256274866   -1.67310681966693    1.01510114231828
H         3.67747365466005   -0.08145944508870    1.93195607478849
H         4.65006295846131   -0.40545158289361    0.47123177394001
H        -0.45846446209395   -2.36680681594898    0.29361049190082
H         1.64799740766333    3.49264074157220    0.99785050374547
H         1.83897283196907   -0.10931750469487   -1.96189371027909
H         3.01734866365647    1.95051392130128   -1.91647499427243
H         5.26576241859661    1.94231954556765   -2.77462771711116
H         5.44356313924426   -4.75156129537942   -2.64640700848515
