26
 energy: -46.152045285614 gnorm: 0.217463059261 xtb: 6.4.1 (79825abcba525fcdf90b791dcacef51065a7a4e7)
C         3.86140723919110   -0.36088103323059    0.83159959881197
C         2.55873752895438   -0.04436454413324    0.06435281161214
C         1.39037489425165   -0.95571566737037    0.40315264130383
C         0.27047671563131   -1.37995329656637    0.91879522525214
C         1.93852745560241    1.29680669655978    0.24750932256980
C         1.32163564398380    2.32410292633483    0.21876797284669
C         2.84265629370421   -0.07685026936025   -1.50096998444359
N         3.75599772708931    1.03673516890900   -1.81155455879277
C         5.10167430092633    0.86295094488085   -1.94295850634574
N         5.66761269765274   -0.26052702247750   -2.21980060162813
C         4.85620504400870   -1.37692963950769   -2.26030259494810
C         3.53764345821522   -1.35160568679874   -1.99175692380841
S         2.66166281828509   -2.83762031529376   -1.75098703646271
N         3.64533646093522   -4.07660111107065   -2.25345372778456
C         4.85274468357661   -3.87243599813104   -2.66278982788611
C         5.58546051875232   -2.57766441680704   -2.76533612427244
O         6.67731771881473   -2.48797290095092   -3.31347595460493
H         4.70063147465879    0.17626439605333    0.37151326911781
H         3.99610203070083   -1.44246149989399    0.94255407124125
H         3.79114383842230   -0.03575822763403    1.87591665394627
H        -0.47563441093524   -2.04680376218687    1.28662707918484
H         0.59692264829799    3.10822830842314    0.17399443707241
H         1.88188246575401    0.01182972593494   -2.02851929426115
H         3.39204117799990    1.94017349428569   -1.52343696864359
H         5.66189820331655    1.80866216099603   -1.84109127782678
H         5.37737326391832   -4.80234631926265   -2.93258985310386
