26
 energy: -46.149702822934 gnorm: 0.225270693188 xtb: 6.4.1 (79825abcba525fcdf90b791dcacef51065a7a4e7)
C         3.64051536351941   -0.21593215986076    1.00185623966226
C         2.49178448402399    0.06377576194490    0.00788464464992
C         1.31651055237281   -0.88686495281992    0.16735517064557
C         0.36454848312171   -1.68527075192768    0.56277034811838
C         1.94777626464737    1.42399831392633    0.27396130205355
C         1.63477246570168    2.58039886393568    0.31250343517296
C         2.90634689890001   -0.05018206123239   -1.52412457516890
N         3.82900084364307    1.02663712657237   -1.92399706636790
C         5.08181383145528    0.81668417791983   -2.41866136502207
N         5.57088409734892   -0.32200529213454   -2.76984098175433
C         4.85642058804693   -1.43392123755042   -2.37038833174990
C         3.62089246766512   -1.36854409973552   -1.84071029139293
S         2.66933138249783   -2.77686270839052   -1.46028697888980
N         3.48033991744166   -3.98120902257198   -2.26463462685187
C         4.71370448676016   -3.93582004136831   -2.64387826560809
C         5.57902580052511   -2.72283803123086   -2.58292450739700
O         6.79950404777886   -2.78408550375883   -2.66857253191075
H         3.79654215602255    0.69885986366187    1.58778554767333
H         4.60028446044585   -0.51504720956007    0.56637564156615
H         3.46111449659614   -1.01551147844371    1.72968048615392
H        -0.19318503869987   -2.54064457687092    0.86926759795154
H         1.14449429113628    3.52045130038324    0.44664863189802
H         1.99936459506438    0.03812705594386   -2.13962710217870
H         3.46771731586503    1.95956540640076   -1.74850929126595
H         5.52678947835570    1.78818221027456   -2.69576369926655
H         5.12008055786194   -4.89656239377319   -2.99685564210248
