26
 energy: -46.150912927823 gnorm: 0.222589807348 xtb: 6.4.1 (79825abcba525fcdf90b791dcacef51065a7a4e7)
C         3.61368399428192   -0.24405098467636    1.09459141204619
C         2.47181565190523    0.00182517871416    0.08390832824678
C         1.33322562158172   -0.99760443738363    0.20707740852644
C         0.61903235605809   -2.02470168086960    0.57454985565871
C         1.80136925267659    1.31850289397170    0.26777936379665
C         1.37826756521062    2.43980019633538    0.24786864641202
C         2.95293363833302    0.02469540917228   -1.43263480716664
N         4.00669999846751    1.05085088492449   -1.51812912235382
C         5.14400365134880    0.90212091660544   -2.25483339939539
N         5.55937153307747   -0.26487444301006   -2.60799328952930
C         4.82516000911970   -1.39911536254512   -2.32372480913832
C         3.58113257087968   -1.31955480327408   -1.81635060536791
S         2.69303947169469   -2.78829709804531   -1.52031275037202
N         3.48233961601569   -3.98200069268843   -2.36128661013621
C         4.69930266967833   -3.87190800507710   -2.77836523257983
C         5.53640720054569   -2.63795649863984   -2.75735654920133
O         6.69032295199818   -2.53376203816965   -3.15519563667524
H         4.56918306197919    0.14522199064430    0.72043898082546
H         3.84709866227365   -1.30775759721901    1.21423973879964
H         3.42679506754891    0.29146802823420    2.03242498572147
H        -0.13019277863013   -2.77011708380902    0.71486807085106
H         0.94883003009040    3.41048401334231    0.37205616741471
H         2.08986564403355    0.25989313286786   -2.07220843617505
H         3.67292774353937    1.97506055117795   -1.26101144851843
H         5.68801261905806    1.81320630372994   -2.55909498840738
H         5.06227117930007   -4.79035689803719   -3.26566995778507
