26
 energy: -46.150889798276 gnorm: 0.223185227391 xtb: 6.4.1 (79825abcba525fcdf90b791dcacef51065a7a4e7)
C         3.75763916006384   -0.33857426145388    0.75478526048334
C         2.51360715832512    0.01629498223860   -0.08916432829795
C         1.30306597488881   -0.82404784226140    0.28343656971562
C         0.39141884623732   -1.61545977042395    0.77598448243049
C         1.99003422335810    1.37402563763552    0.22609111539477
C         1.55660011249339    2.48317908894971    0.36259244259983
C         2.89768241538756   -0.06700778201035   -1.63106169958387
N         3.69015144253500    1.11303062455235   -2.01865695853184
C         4.99342221247033    0.91670912891900   -2.36687609463139
N         5.56596175485859   -0.22546399595600   -2.53049021361809
C         4.92725838537051   -1.42408041404659   -2.28198611989466
C         3.67155574444772   -1.37908390621740   -1.79975282889345
S         2.62980876741631   -2.74739069003552   -1.52397847346682
N         3.50526365438880   -3.99979611360349   -2.17222181186835
C         4.74520400011966   -3.92372791713046   -2.52412467884695
C         5.63174957102051   -2.72548268477643   -2.47866027314724
O         6.83424364654460   -2.87830672027148   -2.65559755722440
H         3.73052839752407    0.21135351950445    1.70417791131365
H         4.69712891630276   -0.14217475441405    0.22652763213442
H         3.70212343990032   -1.42069877127185    0.91960167653034
H        -0.47848784588022   -2.20556182786399    0.95406743762675
H         1.30702419092536    3.50114209637223    0.57122941659476
H         2.03369938464136   -0.05675914143902   -2.31127273833433
H         3.18374113756920    1.98201111636174   -1.87688802260483
H         5.50287195282949    1.81451024691066   -2.75804303019801
H         5.16262517846731   -4.80280985509863   -3.03961950718618
