26
 energy: -46.148515659891 gnorm: 0.224984381307 xtb: 6.4.1 (79825abcba525fcdf90b791dcacef51065a7a4e7)
C         3.71812346717233    0.03568682196447    1.02199544347936
C         2.49305675201197    0.18889143540860    0.09380443138181
C         1.50987485442420   -0.93964027989023    0.35873256617430
C         0.72232113471716   -1.97684034702503    0.42207211366058
C         1.82076532551223    1.48957349272225    0.36435477651040
C         1.10291471635356    2.44168052549184    0.48642760021398
C         2.96123677122078   -0.02982678864947   -1.41114420241492
N         3.78622101289427    1.04990857007007   -1.98061799740651
C         5.09180355155700    0.78079723626838   -2.26583144520761
N         5.68390080142671   -0.36305147472141   -2.27854084755072
C         4.88904199631379   -1.48079135284756   -2.11968667740705
C         3.63236177710734   -1.38733137371832   -1.64705278180202
S         2.62365160984493   -2.80108268508183   -1.77882047098770
N         3.43466427012306   -3.96820102772636   -2.63628957592499
C         4.71460836029932   -3.91054836917798   -2.79595597431921
C         5.59231070565828   -2.74392379758269   -2.49190432439865
O         6.78563852042490   -2.77237663186656   -2.76724621795652
H         4.22951650231032   -0.93121403840391    1.11189448892593
H         3.46469761556266    0.32775975181066    2.04705086802986
H         4.49755829431661    0.72238776785170    0.67247712629375
H         0.03891459492778   -2.75205755886751    0.68411292986023
H         0.47030163436187    3.29171005148525    0.62541206137204
H         1.99651417688206   -0.00072643401890   -1.93813779397404
H         3.41089221551398    1.96429486000314   -2.21450454771787
H         5.66408697234409    1.68361977782277   -2.54151350911347
H         5.20317665563103   -4.75075825858694   -3.31374818663352
