26
 energy: -46.145926906461 gnorm: 0.224301030770 xtb: 6.4.1 (79825abcba525fcdf90b791dcacef51065a7a4e7)
C         3.69001767162799   -0.10187030772453    1.06127024167308
C         2.49475303273068   -0.04388258422589    0.08465435977236
C         1.40581307177997   -1.07542758754830    0.33070746741971
C         0.79251149045036   -2.05080695361752    0.94106232264819
C         1.87138614658631    1.28684883325055    0.32447675007250
C         1.58656820917169    2.44488827330821    0.20388434758721
C         2.85083420813651   -0.13978460024931   -1.46321826487195
N         3.68310401791365    0.97647173649046   -1.94490971436873
C         5.04254765220245    0.89792934034164   -2.00860823718749
N         5.70417375825030   -0.19369078806624   -2.18108129969718
C         4.93212120820779   -1.33836496181148   -2.17529324933836
C         3.63314123930371   -1.40572738991906   -1.82964009035078
S         2.48092267611089   -2.67475934544029   -2.13867406739075
N         3.45758972535890   -3.97672153920880   -2.46452058546276
C         4.73393788308053   -3.79641272481294   -2.53867023984311
C         5.63043477962770   -2.60474820674443   -2.54579031125949
O         6.75489813529801   -2.72619790179254   -3.01641343913679
H         4.11105791494605    0.90127686394986    1.20591750220581
H         4.41438276194648   -0.82210500755945    0.66525624528140
H         3.41091730486789   -0.52750701603536    2.03192789344287
H        -0.04741064758383   -2.67522970368900    1.14428306209347
H         1.20542668393222    3.44177642009591    0.25876037469622
H         1.91655899070207   -0.03368480556321   -2.03342123439850
H         3.21720843232652    1.86917345743927   -1.81186134037801
H         5.66654279491424    1.80331293858975   -1.91109893904579
H         5.30983294603911   -4.71907758307074   -2.71128209391021
