26
 energy: -46.148743921690 gnorm: 0.230420006905 xtb: 6.4.1 (79825abcba525fcdf90b791dcacef51065a7a4e7)
C         3.79853662529962   -0.51707339713415    0.77938334555113
C         2.54210094537606   -0.04968509774263    0.01210487386668
C         1.31967586636824   -0.90462873913039    0.30393657086527
C         0.05828218164175   -1.19479082293230    0.46119022217433
C         2.25426334187215    1.32945454664561    0.49384180327242
C         2.13519024105121    2.50085781162894    0.71824119863953
C         2.67485367313573   -0.25202318505448   -1.56057966011490
N         3.32847096936191    0.94599776028887   -2.11578963933185
C         4.59234986911799    0.90379523505144   -2.62485001552040
N         5.34873492900510   -0.13530050881899   -2.71024459083500
C         4.81840234965847   -1.33627143461273   -2.28270069058562
C         3.51346618835782   -1.46457059557360   -1.97931367968334
S         2.68416907982952   -2.98055357009077   -1.76110822125984
N         3.77539763700559   -4.14181070492408   -2.22571787428346
C         5.01718384807404   -3.81536866658546   -2.36164673452496
C         5.73882452724186   -2.51115238636166   -2.31608012778473
O         6.95552926010674   -2.37244693781483   -2.34839698517477
H         4.66944089459607   -0.20934574825500    0.18665118847129
H         3.91628258771317   -1.59138059531936    0.95902136020229
H         3.88876914318534    0.05272942590225    1.71127536280328
H        -0.87847584569638   -1.59436292973145    0.77662351135244
H         1.87977843695247    3.47644508659751    1.07188011288023
H         1.66569935414867   -0.23693341398284   -1.99720148735565
H         2.82856982594565    1.82859299818272   -2.06286126226120
H         5.06485580641044    1.80772510338474   -3.04704237615175
H         5.71477050102627   -4.62820347566978   -2.61744518452953
