26
 energy: -46.151564702379 gnorm: 0.220116216545 xtb: 6.4.1 (79825abcba525fcdf90b791dcacef51065a7a4e7)
C         3.71040471773445   -0.17235832222628    1.00671743762329
C         2.54898205713351    0.14879916843843    0.04040798644949
C         1.40397701062457   -0.76710277438229    0.44103811056218
C         0.22284014617673   -1.23312222120935    0.73731221061953
C         2.19465535603810    1.59021468209996    0.15754468189093
C         1.72230011779730    2.68719831672672    0.25867097916131
C         2.82607215664529   -0.22206196758303   -1.48195324348176
N         3.58741270566528    0.83493817120801   -2.17031299725135
C         4.94839191701125    0.78888536713211   -2.23298773785686
N         5.59585024965052   -0.30500884299159   -2.02484421091521
C         4.85193420764527   -1.46728738713423   -2.07039756952336
C         3.54094712864712   -1.54541828561197   -1.77616775975575
S         2.58112533624591   -2.99827051246131   -1.81508081596560
N         3.68550286124270   -4.16398633773625   -2.23533898027242
C         4.93273033189516   -3.94322036763609   -2.48585860469599
C         5.62100372713541   -2.62636675365691   -2.61234177622715
O         6.71134645487110   -2.54796198055715   -3.16520651521330
H         3.32328655117773   -0.44998197861537    1.99543710973134
H         4.42753231392866    0.64413622436494    1.14576617189307
H         4.23526826947387   -1.02530547143898    0.56147670569266
H        -0.53585344183176   -1.87937689304147    1.11600808200993
H         1.50417530440016    3.71583863127981    0.44942440155077
H         1.82825830838118   -0.35920365709461   -1.92333567133953
H         3.12656514971905    1.59667454200429   -2.65924464158323
H         5.47411649759832    1.74076827032763   -2.42306683137100
H         5.52829852086438   -4.82374025599868   -2.77351059982024
