26
 energy: -46.150902359959 gnorm: 0.225868539574 xtb: 6.4.1 (79825abcba525fcdf90b791dcacef51065a7a4e7)
C         3.80845332495884   -0.09814657395211    0.74313893815043
C         2.50182131339282    0.07654972196819   -0.06184099005011
C         1.47110467068263   -0.93381123618573    0.41482592948890
C         0.46877219196308   -1.67725009738183    0.79253615403196
C         2.02598512520765    1.47471819095579    0.12697629620862
C         1.86550060208329    2.64604054914480    0.32437880720532
C         2.69573561335340   -0.19605618276015   -1.61747073554771
N         3.47600997728457    0.89312146550428   -2.23032622929783
C         4.82480240222678    0.88015309830341   -2.03308470136067
N         5.52777036659590   -0.19884051669412   -2.00589305604248
C         4.82405372621261   -1.38498983866000   -2.07077974094664
C         3.49971249075039   -1.47986139155393   -1.85059245965701
S         2.56164640330398   -2.94047556990047   -1.99268378391650
N         3.67421452893158   -4.13174394347569   -2.30610340071436
C         4.94086217650911   -3.92986633295328   -2.45416834562541
C         5.63300824237941   -2.61714675258812   -2.30746174121714
O         6.81429601581034   -2.50400626372350   -2.61145586419377
H         4.50759825792024    0.73780663842185    0.61321377318070
H         4.35078165892894   -1.02930981061315    0.54543994781980
H         3.37027603119015   -0.16709752931254    1.74537959160981
H        -0.13380091677106   -2.52063223112182    1.04210346997240
H         1.57434657916848    3.67025216787275    0.41540680586862
H         1.66470326408131   -0.17239399551369   -1.99913965020885
H         2.94096600624838    1.73709479342926   -2.41229847196855
H         5.38100277284012    1.81431881224200   -2.22432546064850
H         5.56134135786612   -4.80298852733048   -2.70994877984057
