26
 energy: -46.156628810875 gnorm: 0.219663418660 xtb: 6.4.1 (79825abcba525fcdf90b791dcacef51065a7a4e7)
C         3.80206028479257   -0.17336262102424    0.84201422512775
C         2.55705212540488    0.07424677674645   -0.03801018710833
C         1.41084727485150   -0.83885362734246    0.36557318269119
C         0.26004895878310   -1.30181990096467    0.76727236968771
C         2.12777392882831    1.48701629320647    0.15369181162430
C         1.79999515401645    2.61753697409207    0.37997300039776
C         2.76429697377203   -0.12652816480968   -1.60282316040089
N         3.58970464039433    0.92280754297771   -2.22598015529409
C         4.94404997324469    0.78057591922168   -2.16407468446179
N         5.57733399058860   -0.33741821456612   -2.07368089303198
C         4.78696272937063   -1.46672459560629   -2.15341782851707
C         3.46383037285082   -1.45574356458441   -1.90732243898960
S         2.59155859833232   -2.95845287202095   -1.78666426721639
N         3.70325898517002   -4.15243670683478   -2.09274412332550
C         4.95384407877885   -3.99419712206511   -2.37215639651166
C         5.59170549892911   -2.65858103981322   -2.55404699310085
O         6.70087050496507   -2.53446497280133   -3.05902440702395
H         3.43745136827903   -0.16215885238288    1.87711652760696
H         4.58761465068994    0.56793917775804    0.65858612004878
H         4.27136996069455   -1.13148151458811    0.59102316979381
H        -0.58413584819991   -1.90585203625215    1.01051878867051
H         1.35338202867650    3.57516037678130    0.53984902344553
H         1.74884815966477   -0.16658399421744   -2.02296361643138
H         3.23873191374296    1.87455316543078   -2.17425645275312
H         5.55044214101765    1.69856707515395   -2.25450829306659
H         5.44632674779192   -4.91357898971104   -2.72565068375634
