26
 energy: -46.154819887495 gnorm: 0.216711423712 xtb: 6.4.1 (79825abcba525fcdf90b791dcacef51065a7a4e7)
C         3.73416684116980   -0.41996978835659    0.81407549872744
C         2.50297472568527    0.03295082452531   -0.00129410644758
C         1.29980303197285   -0.77723470921308    0.45301274549322
C         0.60497018448191   -1.82458172813486    0.79986762593539
C         2.18353497107586    1.46408398875759    0.25709173145142
C         1.76580761938715    2.57434643594645    0.42896456022562
C         2.72774535517545   -0.11195754235414   -1.56985407382791
N         3.54487307357648    1.03744728182690   -1.99634993841648
C         4.85648038107745    0.87379684092494   -2.32984386745419
N         5.50211913875106   -0.23556960974352   -2.43748787868503
C         4.81686317246866   -1.40847887877997   -2.19033263815671
C         3.49704450871861   -1.38831396093259   -1.92758786524563
S         2.53486913317948   -2.83275092183247   -2.07377991241785
N         3.65280355174091   -4.05222301671794   -2.20894822210042
C         4.93302772630939   -3.89049150083709   -2.25302811680613
C         5.68127014393677   -2.60834742368415   -2.39466690663992
O         6.88243195798222   -2.46722914127846   -2.58947429844202
H         4.67708670772205   -0.13356546794384    0.33098477071052
H         3.78877609478122   -1.51020564560742    0.90720709016828
H         3.63622822720802   -0.00795741616690    1.82496309447448
H        -0.23430027498617   -2.35582942581522    1.18725968876437
H         1.40393240165805    3.54200846900340    0.70235571614035
H         1.76197947623193   -0.12162447416024   -2.09565021651070
H         3.09106581363823    1.94269317744965   -1.91719337778749
H         5.30911951394586    1.77697154752295   -2.77480535467270
H         5.51735752487307   -4.79706269333589   -2.47539666146237
