26
 energy: -46.153144751287 gnorm: 0.219239969271 xtb: 6.4.1 (79825abcba525fcdf90b791dcacef51065a7a4e7)
C         3.78967984434560    0.09903923920282    0.84373777913308
C         2.54082107174976    0.03741377378104   -0.06309891222949
C         1.63288480594364   -1.07745936426263    0.42998026334668
C         1.02005038710111   -1.88592200458209    1.24904003615323
C         1.70700359412423    1.25598838936397    0.12865998885919
C         1.00285334905126    2.22589886185482    0.11580562558437
C         3.00650834997619   -0.00388803555089   -1.58406247957277
N         3.90592296109720    1.10988264020259   -1.93233840997896
C         5.23533781025673    0.81066343816373   -1.97025187296766
N         5.76051657561754   -0.33172489194595   -2.25001379048403
C         4.92421555962648   -1.43034016834242   -2.25477718672762
C         3.60225481217794   -1.34830862525588   -2.01591871822329
S         2.42256875751349   -2.62965591687873   -2.00946567080083
N         3.33116052918912   -3.96842755331706   -2.38002137250046
C         4.60362528590853   -3.92871672086624   -2.59526670582455
C         5.52703285530599   -2.75792950586064   -2.57533030179578
O         6.72941515643319   -2.86226389273933   -2.78519963513014
H         4.44010285767834    0.92215753666570    0.52135890678393
H         4.36638534675769   -0.82960199469983    0.77089469647155
H         3.45057836417118    0.33857861513441    1.85807055204620
H         0.44000182027187   -2.67120801754811    1.67745708762559
H         0.29116265206541    2.96940539183877    0.40348706193261
H         2.02732887403240    0.10813395943711   -2.07183025337758
H         3.55348892356799    2.00450700028473   -1.60505500070751
H         5.86844311274600    1.71188391091508   -1.89557392494831
H         5.01749923718212   -4.91727889856807   -2.84867070176449
