26
 energy: -46.148920090232 gnorm: 0.218226517311 xtb: 6.4.1 (79825abcba525fcdf90b791dcacef51065a7a4e7)
C         3.85436363859457   -0.02907665081827    0.81163423812829
C         2.56804572604146    0.05954465153668   -0.03885455885058
C         1.63793474599605   -0.96646758728432    0.58773133085106
C         0.75076426817535   -1.90827271013087    0.74887852308090
C         2.01000239601425    1.40931275991935    0.25038725132353
C         1.47709899355948    2.45565861741023    0.49099776529431
C         2.77600670022866   -0.03359045922783   -1.61364937571833
N         3.71473595920838    1.06146391350945   -1.91426735751122
C         4.97583674418680    0.84492041673942   -2.38442383697357
N         5.53561245825788   -0.30804926675521   -2.51265259434472
C         4.73394529504603   -1.41451828538145   -2.31407348239758
C         3.42443794687565   -1.36531295345463   -2.00726397880830
S         2.47772344200388   -2.82174205244104   -2.13414034913955
N         3.52373238413143   -4.09511686023105   -2.33299183457924
C         4.80472393952859   -3.96011875372937   -2.42193113161273
C         5.54353320363282   -2.66877930974653   -2.31982825902898
O         6.76270798557796   -2.60386758847461   -2.21956207520496
H         4.35521742987326    0.94589091688707    0.86718315791294
H         4.47552495255279   -0.76905007334431    0.29504170241319
H         3.61783962210313   -0.42020993003419    1.80778234251438
H         0.28544184822071   -2.67008041737457    1.33179849262372
H         1.05763573773985    3.38771697360593    0.80306186781175
H         1.73413635000356    0.05583567670988   -1.95389618930777
H         3.33403481612492    2.00313257578725   -1.91234611606145
H         5.55650659568990    1.75273661359685   -2.62377656934443
H         5.35286652669264   -4.89460118960309   -2.61952335208944
