26
 energy: -46.151364888861 gnorm: 0.217938394773 xtb: 6.4.1 (79825abcba525fcdf90b791dcacef51065a7a4e7)
C         3.88949069436004   -0.05565940243926    0.79025935208216
C         2.57990470106563    0.05031068904692   -0.02186968415936
C         1.57749190458866   -1.06433174485176    0.22944344391314
C         0.38107883738972   -1.50376535598812    0.50427185966990
C         1.97167506299370    1.38660670296655    0.22575263671537
C         1.65518297194803    2.50657119930616    0.51251281733234
C         2.78408518842216   -0.10396870520173   -1.59235013852357
N         3.64648347596999    0.98283238432088   -2.08819333180289
C         4.97810029913684    0.81779974335717   -2.32876403781484
N         5.57690888874749   -0.31428586111927   -2.46639042166477
C         4.76588102165473   -1.42483297720104   -2.34271137506162
C         3.47544133806077   -1.42131523283266   -1.96046041307211
S         2.51216445636319   -2.84406790835611   -1.67511119403175
N         3.55780756166916   -4.08788864718869   -2.01378580721483
C         4.77841128461653   -3.95538517029602   -2.41333985839200
C         5.54719556458449   -2.68296540693290   -2.53055921694147
O         6.77011934067633   -2.69951246145821   -2.60011228909441
H         3.77629642730196   -0.22332400163001    1.86895189407768
H         4.49725117393528    0.85369493038483    0.72723724492478
H         4.50792115848483   -0.85611654631832    0.36829724405521
H        -0.46409414474167   -2.14779587172685    0.59132908554691
H         1.49541834780295    3.49824182395612    0.87738381959026
H         1.83533075646634   -0.11920376577631   -2.14813039269050
H         3.41764105650485    1.96492463157177   -1.96652620628531
H         5.53205680827371    1.76129985170936   -2.47551958874668
H         5.35945101580167   -4.88457774959053   -2.52175753480579
