26
 energy: -46.146953369575 gnorm: 0.229360376542 xtb: 6.4.1 (79825abcba525fcdf90b791dcacef51065a7a4e7)
C         3.55059436716867   -0.40690291930288    1.08614389005738
C         2.46512415106321   -0.00311954194232    0.06413014271467
C         1.34605052376331   -1.01259826326259    0.26172662213257
C         0.26882957377315   -1.73512292494210    0.12909966832208
C         2.03539459766521    1.38462999264597    0.39036758337561
C         1.79260411402031    2.48687099923150    0.79389782355486
C         2.89905945621651   -0.06908117016038   -1.46533049963068
N         3.76263657974973    1.10718762752174   -1.66868769134979
C         4.83098460509364    0.90817975267864   -2.49169544534821
N         5.36072341819668   -0.20684509459458   -2.85942760729348
C         4.79155789054481   -1.38265569086155   -2.41232845069094
C         3.55839872284394   -1.39110875868122   -1.87324611112967
S         2.66741595604134   -2.85969179296774   -1.58520915748352
N         3.71431398514252   -4.01186431507362   -2.16111108041409
C         4.91943263004999   -3.85099329313923   -2.59571852242186
C         5.67684956339773   -2.56664200389603   -2.61986519403713
O         6.87578619792348   -2.50355892922935   -2.86322802469909
H         3.94132634845874   -1.38935966178711    0.79184942533781
H         3.01565572082097   -0.51945641532924    2.03558701507044
H         4.39067086078797    0.29651275286054    1.11293520450030
H        -0.47563182160125   -2.49788693713677    0.10380300083304
H         1.55017054618865    3.52423365382123    0.87857896767147
H         2.02541054475324    0.10474554386065   -2.11014103008644
H         3.66605591601300    2.05650987579319   -1.32064119413189
H         5.34722849346828    1.80247663661900   -2.88198097068370
H         5.37929834803658   -4.70373201361224   -3.11928380826014
