26
 energy: -46.148980646331 gnorm: 0.227297238838 xtb: 6.4.1 (79825abcba525fcdf90b791dcacef51065a7a4e7)
C         3.77619965625108   -0.58553313467860    0.70715672629433
C         2.55508618529688   -0.03489940493547   -0.06192264167996
C         1.29871298490554   -0.85799190203187    0.17144949546333
C         0.16022575446458   -1.42135104149803    0.46557543512177
C         2.16649763896524    1.31515961664482    0.43131836877673
C         1.77830519653476    2.35888888722846    0.87477630115888
C         2.81419271327790   -0.05486568646866   -1.63175250133508
N         3.49782080507111    1.11640456876279   -2.20751850172245
C         4.75870912398115    0.93047780601984   -2.69115604712784
N         5.36279931109462   -0.19240963685622   -2.87371943491736
C         4.83368389916099   -1.36359829711903   -2.36901001069304
C         3.57174553023594   -1.35962590303692   -1.90118684326985
S         2.67544278374847   -2.82061158997603   -1.59181019554117
N         3.73938083979856   -4.07001157561086   -1.84120048137754
C         4.95721424511817   -3.84026193786928   -2.20337579009576
C         5.68914080089799   -2.57850553974260   -2.51333707479664
O         6.89964735519721   -2.50156845091183   -2.68482629840438
H         4.67588732344381   -0.04372339199867    0.38855624953194
H         3.92602741552380   -1.64162620554786    0.45717881609106
H         3.63548920691031   -0.59555305791058    1.79405141476380
H        -0.69852374137782   -1.96009588695201    0.79568892903230
H         1.40965563571965    3.25072355802141    1.33390005658834
H         1.84471333681406   -0.03098223640632   -2.15020990838330
H         3.10376613338882    1.99798095492427   -1.89252499389356
H         5.35937510882108    1.79915497777483   -3.01240019317516
H         5.58115866734683   -4.74198655859545   -2.10165815684710
