26
 energy: -46.149985363283 gnorm: 0.216923591367 xtb: 6.4.1 (79825abcba525fcdf90b791dcacef51065a7a4e7)
C         3.91531964059490    0.08385280083008    0.89455235788343
C         2.58109300629892    0.09849823675008    0.11646271066707
C         1.57668532106418   -0.96581197977604    0.52734763309435
C         0.72217692820633   -1.90547358221471    0.23257948032259
C         1.81596239617622    1.35570901194262    0.34216903826151
C         1.29848988314530    2.39032260535307    0.65604165767645
C         2.90663112700006   -0.12817303178894   -1.42449338972669
N         3.70391332821763    1.00728942659970   -1.92026952577164
C         4.97385596607186    0.82086395698938   -2.37940418751387
N         5.61493814503249   -0.29043609120379   -2.49410555733800
C         4.86036223606056   -1.42036828475556   -2.24865488136325
C         3.56862642871353   -1.43628684943955   -1.87112614353862
S         2.47160799289967   -2.78511785209813   -1.97484294069660
N         3.47940377338405   -3.98027488213083   -2.53261293683225
C         4.76561553658008   -3.90169455389518   -2.61359747294587
C         5.60951880333419   -2.71016895733661   -2.31042139402021
O         6.83388164876224   -2.74818590170235   -2.32243527082191
H         4.41610212044199   -0.86793776288957    0.67588916135752
H         3.81445224202063    0.15457098666805    1.98317285784387
H         4.49184045855474    0.97098457577512    0.60843899144967
H        -0.12645918132033   -2.52360800890596    0.41804705506893
H         0.75734333009677    3.23885964440838    1.01550168145706
H         1.94606540896822   -0.04454936791368   -1.95324602999659
H         3.31313278652921    1.94422839203588   -1.88690989117747
H         5.45100365480581    1.79504179621774   -2.58411149119299
H         5.27237850852764   -4.84019534707323   -2.88776523950263
