26
 energy: -46.150851135462 gnorm: 0.214166030863 xtb: 6.4.1 (79825abcba525fcdf90b791dcacef51065a7a4e7)
C         3.69340605062709    0.10725352472800    1.01204175143329
C         2.48719565896150    0.09322958638618    0.04733531591957
C         1.50701965692572   -1.02593550622312    0.35901130301941
C         0.53715392757240   -1.70403339721325    0.90635075631711
C         1.73951978438498    1.38005698815026    0.09209173412175
C         1.10385902360245    2.38749783676144   -0.04101511587465
C         3.01392719656327   -0.09177298030908   -1.44270782478343
N         3.82805361943665    1.04524245685389   -1.90652021230948
C         5.16593010885834    0.80864746177140   -2.01797738856176
N         5.70683426457560   -0.34959791420075   -2.17615734546537
C         4.95810144957364   -1.50957419616197   -2.16093249314020
C         3.71183647040021   -1.43920678568034   -1.65770811994075
S         2.74239323235047   -2.87037276758098   -1.44441152884592
N         3.56519017535860   -4.10660913961035   -2.18595373803234
C         4.68464447330263   -3.92440267037468   -2.80296016542575
C         5.47893329467190   -2.67002012559794   -2.94242840093187
O         6.46224251737400   -2.56025628807589   -3.66472256555221
H         4.48789693920267    0.73399383384955    0.58720911145899
H         4.12152266987979   -0.89456812956566    1.12753816000782
H         3.32609578264224    0.39222007218033    2.00457242080656
H        -0.20947238215378   -2.45615257077054    1.02270163631403
H         0.64009088898111    3.33627931739334   -0.20471918020305
H         2.11138382688802    0.01589313102953   -2.06164420238943
H         3.55737782467453    1.95989872591586   -1.55749951799179
H         5.89069912926811    1.63968995286738   -1.96625020226523
H         5.20901936495117   -4.84324307677770   -3.10877659813769
