26
 energy: -46.154561558354 gnorm: 0.218249534927 xtb: 6.4.1 (79825abcba525fcdf90b791dcacef51065a7a4e7)
C         3.92591375664175   -0.27698524005842    0.80785416394986
C         2.63756375146210    0.03850641042391    0.01638844737053
C         1.53086178088187   -0.95177921768156    0.34036772351564
C         0.37100264292415   -1.50979145770350    0.54866053656679
C         2.10317624337041    1.37244574179054    0.40623838720838
C         1.66254399231229    2.43594187906038    0.74021187574897
C         2.74979232935901   -0.12891207805296   -1.56198934028737
N         3.47609229906571    1.00897240711382   -2.15227327998391
C         4.81708062094758    0.91831499926104   -2.37996813804814
N         5.48889860147110   -0.17871165818142   -2.31421351745827
C         4.83544122444395   -1.37930436602659   -2.11941053594701
C         3.52512925206010   -1.42635448240960   -1.81571403874536
S         2.61252910022396   -2.90888490390179   -1.76264608818972
N         3.59417019564080   -4.05285611899102   -2.45753503174382
C         4.84021857481412   -3.85568206132923   -2.73241661087681
C         5.60958893410039   -2.60267867270514   -2.48367287402183
O         6.82963424709081   -2.55155558794006   -2.58129384826247
H         4.70180144143533    0.49092973780109    0.69468682626980
H         4.34021939555193   -1.24175153162832    0.49504954510592
H         3.55219769411598   -0.36445563266654    1.83446272422380
H        -0.27665341350707   -2.28891345784326    0.88059753979223
H         1.11862132264264    3.32272769077590    0.98480389914384
H         1.73304856329340   -0.05658975581448   -1.97461551014017
H         3.03609745536675    1.91784810399171   -2.04260821144544
H         5.46071680848980    1.78565696385716   -2.60810807406781
H         5.35241289923165   -4.73367041467974   -3.15615453940757
