26
 energy: -46.149948669141 gnorm: 0.214127714726 xtb: 6.4.1 (79825abcba525fcdf90b791dcacef51065a7a4e7)
C         3.77388287887065   -0.58374451012160    0.85600109944038
C         2.56058629098665   -0.13965229595116    0.00954246779977
C         1.34331741517006   -0.99651180570724    0.31689526039753
C         0.04617412995532   -1.09890904873632    0.23340335156110
C         2.23105750661382    1.25239685250044    0.42252807094669
C         1.92253026778734    2.35492767161986    0.77743068236887
C         2.77115327430370   -0.16466696540987   -1.56745990467000
N         3.48920861806533    1.04304445646583   -2.01080799531135
C         4.74908396527614    0.95453209789150   -2.52383145407706
N         5.46135498300627   -0.10538956098667   -2.69225543257539
C         4.82303019333878   -1.27831092090461   -2.34129311509027
C         3.53748943911852   -1.42866737056290   -1.97232067115160
S         2.66519240862591   -2.89871141818838   -1.63822473271281
N         3.77678731559968   -4.09131403495637   -1.95001919885057
C         4.98700759779787   -3.84574271982268   -2.32702802702283
C         5.62765670609183   -2.51802036170745   -2.55184741790914
O         6.81569444573229   -2.49484491450714   -2.84964470812190
H         3.95618522866257    0.22483717960098    1.57535043816261
H         4.67657634021597   -0.67595197879439    0.24206935238353
H         3.52708566427949   -1.51332482740181    1.38155934516504
H        -0.86427731323209   -1.63699227583131    0.36837095067494
H         1.82763576123772    3.39027683408673    1.02464184940821
H         1.72849955149005   -0.17004189347681   -1.91689244179398
H         3.03303518988429    1.94148936189785   -1.88282566062620
H         5.32435613882031    1.86942024216354   -2.74886271684811
H         5.56067903509397   -4.76909927095089   -2.50330670031696
