26
 energy: -46.154150707858 gnorm: 0.213712955901 xtb: 6.4.1 (79825abcba525fcdf90b791dcacef51065a7a4e7)
C         3.95008795184776   -0.25829907493077    0.78228670455051
C         2.62700968949942    0.02545818506864    0.03747503004267
C         1.55793296890273   -0.97241457121231    0.45189316222709
C         0.34653436976058   -1.43205729844791    0.30602066681767
C         1.99621464527046    1.33548298238268    0.35822380375308
C         1.39288057198577    2.36781260346720    0.44190571291297
C         2.82009457449149   -0.09568994097383   -1.53730812961626
N         3.49924943911582    1.08398157664712   -2.10109146904071
C         4.81505646841052    0.89131404475527   -2.40083215075852
N         5.49994005432323   -0.19798080177899   -2.46000784282111
C         4.87154965723651   -1.40650665959524   -2.23424613078767
C         3.56870168886287   -1.38361834473282   -1.89745832212629
S         2.65529045074761   -2.84633591239120   -1.65314515143166
N         3.66093559384453   -4.09475804115564   -2.08358685001386
C         4.89862772483035   -3.95875647937017   -2.42519454071836
C         5.62136820149001   -2.65975118461172   -2.54374041233484
O         6.83031276617240   -2.65758174381636   -2.74148346418071
H         4.64468044942092    0.57288304109161    0.60570948259396
H         4.39723157302394   -1.21834102118102    0.50183718798642
H         3.77377648170810   -0.29219302641487    1.86349221819258
H        -0.57895090349624   -1.90473901943054    0.54418161490166
H         0.86103235677503    3.27094353682158    0.65061172961912
H         1.78734911034242   -0.08915294560341   -1.91500223607060
H         3.13232843846446    2.01331063464993   -1.91835285664210
H         5.34626015065437    1.83635081275293   -2.60898020138171
H         5.38285954624009   -4.94032634164296   -2.54685204735558
