26
 energy: -46.154309647933 gnorm: 0.215253211141 xtb: 6.4.1 (79825abcba525fcdf90b791dcacef51065a7a4e7)
C         3.91422873554570    0.07777635255313    0.95413250649549
C         2.60726823395242    0.12036833570162    0.13203830582869
C         1.67126054301172   -0.94669560446940    0.67580444168425
C         0.79288022560791   -1.89676576455896    0.51502043832775
C         1.82725536810017    1.38715236809849    0.19356297015024
C         1.26305174895624    2.44427768997870    0.16390751583825
C         2.87063803304748   -0.11259326423388   -1.41982054320151
N         3.67303034055552    0.96826273408743   -2.01869012864146
C         5.02620783822661    0.81565119333761   -1.95597026780726
N         5.61565797950633   -0.32795193637317   -2.01802650486892
C         4.81836974758011   -1.45163845135486   -2.10767969648886
C         3.50250478166598   -1.44877331482873   -1.82509532052124
S         2.48718720614764   -2.86305005411105   -1.87512752796725
N         3.49441305943484   -3.99632033478898   -2.55066774033300
C         4.75545733652747   -3.88927069229153   -2.80636632296791
C         5.54957232805342   -2.63753795545982   -2.64398333008246
O         6.76792781370361   -2.61609230717399   -2.76969726460732
H         4.36510064212719   -0.90808896473573    0.78300079064052
H         3.59118198275285    0.18198213615247    1.99579072400335
H         4.65706774117740    0.82630965294026    0.65558936585784
H         0.08224210586602   -2.65047495484947    0.76718617101499
H         0.75056248838056    3.38073937933307    0.11430436956265
H         1.88006302042023   -0.05649437477836   -1.89402812370488
H         3.34774922098752    1.93013078678703   -2.04474710813307
H         5.56139634672299    1.78083535830725   -1.93167522724785
H         5.27939456123605   -4.77949534364730   -3.18813885268916
