26
 energy: -46.151849821053 gnorm: 0.219430856865 xtb: 6.4.1 (79825abcba525fcdf90b791dcacef51065a7a4e7)
C         3.76691864503514   -0.38593940959911    0.96107043888725
C         2.53732050008201   -0.08778489885485    0.07507326609480
C         1.30128970284624   -0.89745804912792    0.43154867556629
C         0.07675738753430   -1.17930865802136    0.77956825302439
C         1.99909376491575    1.27335808839255    0.34810970628866
C         1.74101751646948    2.43422390654346    0.49813078495542
C         2.75814914478485   -0.25634501091313   -1.49168224776275
N         3.48291912341919    0.88399005550620   -2.07911080133713
C         4.84591557395322    0.90529395701152   -2.06909969892261
N         5.56723495830466   -0.16158788971423   -2.09343146067007
C         4.92341687502605   -1.37932656931325   -2.18823856391776
C         3.59787784598543   -1.44768208737419   -1.96544594828736
S         2.63247856754318   -2.88545652941497   -2.15081205587732
N         3.76732548623821   -4.07555768980432   -2.37651479674496
C         5.03864010417641   -3.85990200392834   -2.44228580244061
C         5.76205750355583   -2.56030121945301   -2.54964857451017
O         6.87873533055201   -2.44145351961034   -3.03909708601182
H         3.58065103362803   -1.34836720042073    1.45456723470024
H         3.83363211576054    0.41464277623711    1.70597806192538
H         4.72327269864672   -0.35920091843580    0.42636316090152
H        -0.78151368240369   -1.75582971045067    1.03969491865973
H         1.36290756239914    3.39581436405260    0.77097298944972
H         1.74464916097794   -0.34416190491466   -1.90925229487816
H         2.99918223755088    1.77255956660691   -1.98900099724286
H         5.40132719528626    1.85895156970628   -2.04355466100780
H         5.67376348725894   -4.74876462231392   -2.58121724458701
