26
 energy: -46.155749415935 gnorm: 0.221715314707 xtb: 6.4.1 (79825abcba525fcdf90b791dcacef51065a7a4e7)
C         3.48572981751321   -0.41889468981328    1.13969676039279
C         2.44555329041639   -0.01454437445144    0.07183332403597
C         1.21368110199641   -0.90127855909749    0.15314043116495
C         0.13816873517075   -1.62019727296968   -0.00954271345756
C         2.00583787603320    1.39288392307820    0.27857733675600
C         1.57658091613317    2.49481425306231    0.47404377755714
C         2.95660597960351   -0.03703047507261   -1.43489166110076
N         3.86185277606029    1.08438205489644   -1.74097998094382
C         5.09185097068809    0.87488248830625   -2.29009542648110
N         5.55197129107858   -0.23663809812716   -2.75046684162932
C         4.82781291411411   -1.37548937780801   -2.45893636827793
C         3.68057195727433   -1.34921245088273   -1.75572198744429
S         2.88677628062174   -2.81165510150519   -1.24123036600297
N         3.87595955711792   -4.05376611731374   -1.72479700907939
C         4.93126748361504   -3.87570136763262   -2.44707963190591
C         5.49864051336344   -2.60343670844794   -2.97929405183520
O         6.37703613830755   -2.67555351955322   -3.83010207215694
H         4.27893108801241    0.31784223669195    1.32011961359533
H         4.01337548643845   -1.33596695505787    0.85537581777252
H         2.88035454970452   -0.59868646140597    2.03548446077652
H        -0.78224501268951   -2.14871856308499    0.09133051907602
H         1.12894238634748    3.45645802029174    0.60414844131771
H         2.03145294848933   -0.00676142655393   -2.02855353808632
H         3.67402611650795    1.99560261896904   -1.33345678745294
H         5.64261232419883    1.82657907443259   -2.38773250825086
H         5.47457852835424   -4.81508297709073   -2.63452485560566
