26
 energy: -46.153826926305 gnorm: 0.223696890000 xtb: 6.4.1 (79825abcba525fcdf90b791dcacef51065a7a4e7)
C         3.92419145325486    0.01663858472930    0.85466424687959
C         2.61500296740033    0.04977476217411    0.03568549221209
C         1.66572755895073   -1.09971872535044    0.33226325455560
C         0.81534343106180   -2.01866434960208    0.69616234467340
C         1.72976539896177    1.21509107841304    0.31016585619454
C         1.07366521231923    2.21562875999940    0.38211034087539
C         2.92308690756959    0.02873569427302   -1.52525726702710
N         3.82833802283643    1.14833357748682   -1.83790544871617
C         5.15331207143093    0.88914047134030   -2.02652173290555
N         5.68194880917377   -0.28083590427598   -2.13058439372777
C         4.88826400062836   -1.40758001888110   -2.21358875584800
C         3.57867414262610   -1.29821449144668   -1.92311271124307
S         2.43687620888374   -2.61260979727594   -1.97016767632325
N         3.34120623288815   -3.91844469234911   -2.45197932235329
C         4.62599221995091   -3.89185830599680   -2.57724778361590
C         5.53439479118499   -2.70943907069793   -2.55463776698557
O         6.71883287355024   -2.88907916233224   -2.81054761976212
H         4.44116722574848    0.98372881958791    0.89909944903474
H         4.62691712720986   -0.71802431619856    0.44635439186287
H         3.76371997843441   -0.43258622612303    1.84141947081497
H         0.36842410595625   -2.96295545247712    0.90888061006445
H         0.55106509649653    3.14758678896762    0.40234796072392
H         1.97131423624154    0.09764469834495   -2.07173608683887
H         3.51764318321282    2.08358500116657   -1.59203878722017
H         5.81459886769114    1.77266235634928   -2.00032420174961
H         5.03411368798171   -4.83158215697958   -2.98112445005965
