26
 energy: -46.151745032558 gnorm: 0.220530738889 xtb: 6.4.1 (79825abcba525fcdf90b791dcacef51065a7a4e7)
C         3.68560794794720   -0.23584312579712    0.92887788188764
C         2.47052056499339    0.01282198248435    0.00826557875734
C         1.31128796444372   -0.93553370416544    0.26753128712414
C         0.15692918847821   -1.37818588901740    0.68171920378668
C         1.84115587508542    1.31290678330722    0.36968876891813
C         1.20216448304062    2.30574249707514    0.57629553005833
C         2.90320430011768   -0.06041057399433   -1.52121878052318
N         3.81494137208985    1.04807081210006   -1.85398357155682
C         5.15539136668339    0.80994836978416   -1.92330103546471
N         5.68775309124270   -0.32267656109796   -2.22806704423316
C         4.90425180580279   -1.45918157962942   -2.25738738083521
C         3.62418414091285   -1.37203099157858   -1.85094638419418
S         2.71790279702402   -2.85835166109010   -1.79565903072448
N         3.73659385935781   -4.08800274565332   -2.24885518399430
C         4.95413923190919   -3.91398945564171   -2.64176318362214
C         5.67332914811658   -2.61738881078426   -2.80118188967595
O         6.67575191703184   -2.49186826962932   -3.49403625647484
H         3.90975751436684   -1.30331238084170    1.05040286647249
H         3.37596217813322    0.12991811563553    1.91407233097765
H         4.58003050776980    0.28581259879306    0.56954031795942
H        -0.63040663574347   -1.95640226542786    1.10884886940925
H         0.67881423417540    3.22558332325947    0.72483366317253
H         1.98576445689775    0.03508890912440   -2.11991966169933
H         3.33223383919333    1.91875973299143   -1.65256071853891
H         5.86240663191220    1.65734522622172   -1.89789552979692
H         5.49351473673492   -4.81951544740405   -2.96091385462958
