26
 energy: -46.153467158692 gnorm: 0.217012135685 xtb: 6.4.1 (79825abcba525fcdf90b791dcacef51065a7a4e7)
C         3.56799550187275   -0.16155534546178    0.94771558875997
C         2.40575245379997    0.06224840030793   -0.04470653749599
C         1.23365013673228   -0.89151187074089    0.11941210755535
C         0.21873312362523   -1.52039392120572    0.64332773562496
C         1.92205164564734    1.44355767945325    0.22909142641946
C         1.52605188866780    2.54367980362361    0.49297513079356
C         2.91937905772387   -0.02988395098597   -1.54790312252957
N         3.90484666305869    1.01615019321204   -1.87254761287339
C         5.08737350437603    0.77531775698465   -2.50653767636602
N         5.64348804912545   -0.35931224276358   -2.75650155173479
C         4.93152001538949   -1.44781346264824   -2.29320443525168
C         3.67298745603735   -1.33425301636603   -1.82999544859254
S         2.69240280875151   -2.75452121139401   -1.59580810390383
N         3.57211723051796   -4.09260176529865   -2.03261812362847
C         4.81444667128289   -3.98068141424918   -2.36603295930835
C         5.62878808315092   -2.74399942865116   -2.54291548594921
O         6.77697895576865   -2.87416914348191   -2.94956958639518
H         3.24762647449420   -0.70766235621227    1.84417126497342
H         3.95708154919435    0.83403108300908    1.18790218671332
H         4.31049333588247   -0.81194314715361    0.47134118618118
H        -0.56186339677539   -2.22537830558825    0.81750498804866
H         1.03057614989259    3.45307564437124    0.75673487323157
H         2.02822600426995    0.07293226337303   -2.18393285680232
H         3.62175477722027    1.98020489794130   -1.72377116142453
H         5.64763152566763    1.67690552667016   -2.80960186505549
H         5.38238181253282   -4.88412733771440   -2.63805419011790
