26
 energy: -46.149096302413 gnorm: 0.217177304794 xtb: 6.4.1 (79825abcba525fcdf90b791dcacef51065a7a4e7)
C         3.81742363789496   -0.12575622013110    0.80980055876953
C         2.52602347553641    0.00424700857629   -0.02756643839088
C         1.64163153768177   -1.19453047080975    0.27442843513021
C         0.87100127513196   -1.93381487470656    1.02250887709118
C         1.91538564312507    1.34103931678317    0.21129523538378
C         1.55862696022992    2.45960645825454    0.45264540905983
C         2.74212315404541    0.00558626286289   -1.60401808516003
N         3.67176922813062    1.07927514446408   -1.99603625962817
C         5.01957506474378    0.87956621755537   -2.03903823671819
N         5.58094789641001   -0.27937637616207   -2.06807560163725
C         4.77521801843569   -1.39842018842314   -2.13820341765865
C         3.43890324479272   -1.29610419758977   -2.01508962884499
S         2.46197616355970   -2.73511274618073   -2.10684787765429
N         3.48422223888637   -3.97868553784806   -2.51144607165962
C         4.77067612690716   -3.88988329297694   -2.57644309305946
C         5.56268317076331   -2.63752627668439   -2.40866811681132
O         6.76488711740245   -2.70699567077849   -2.63346505213545
H         4.66865019222858    0.47378782027310    0.46272382810522
H         4.18211539613104   -1.13592568766220    1.02619708298335
H         3.45209465314041    0.15607254016581    1.80395707840991
H         0.49674824431448   -2.85985646731772    1.39540735137514
H         1.01250703468131    3.37335363684646    0.54690743792731
H         1.74674595531314    0.13929779057936   -2.05190671431026
H         3.27987937892785    2.01467557357905   -1.94013180257688
H         5.62579013959193    1.80163836525345   -2.06876525084640
H         5.30429247003698   -4.79565837020704   -2.90444540556214
