26
 energy: -46.152688017139 gnorm: 0.222718011532 xtb: 6.4.1 (79825abcba525fcdf90b791dcacef51065a7a4e7)
C         3.90159921415666   -0.21503508588085    0.86734003715827
C         2.58913098383933    0.02028350194326    0.08769203695886
C         1.50360040219197   -0.95876879358300    0.50422222742729
C         0.41588989893131   -1.67689523763241    0.46933609253451
C         2.13968091446924    1.41812131600513    0.33465600995591
C         1.83843087340874    2.57799512873100    0.30896053010200
C         2.69951549168072   -0.21588906363706   -1.48200169932220
N         3.40824940428122    0.89676513014972   -2.13806935978682
C         4.76898835945567    0.89086011040167   -2.21972733781455
N         5.50665124057319   -0.14654415095827   -2.02281001500806
C         4.87382386783167   -1.37352393049907   -2.00212840203601
C         3.54697041716673   -1.45472419314320   -1.79182106607888
S         2.53546208016871   -2.86033354880896   -1.97800625226383
N         3.62506570374507   -4.05901026448500   -2.34008096980490
C         4.89143708969550   -3.86308743798037   -2.49816896098876
C         5.63380378492854   -2.57004869375090   -2.47052506121562
O         6.81689435883234   -2.56239035388034   -2.78816011859912
H         4.53317030117831    0.68244268050871    0.87973283783953
H         4.40321981783348   -1.13334959374702    0.54277090389587
H         3.53622028041781   -0.41979221258791    1.88016413565209
H        -0.35232366330793   -2.36298217711828    0.74466183326426
H         1.55370129218029    3.59014279573861    0.50014727324140
H         1.75800659155985   -0.26058872118606   -2.04841294242765
H         2.89268629622858    1.77189767650803   -2.14189467232446
H         5.33661068995408    1.81501468900341   -2.42549580888837
H         5.50892963237880   -4.73159245419900   -2.77595017970678
