26
 energy: -46.157395712776 gnorm: 0.220273712234 xtb: 6.4.1 (79825abcba525fcdf90b791dcacef51065a7a4e7)
C         3.75207252420620   -0.29341832163534    0.83699346469438
C         2.50778285746745    0.03066649885392   -0.01887508175740
C         1.37398708702746   -0.87386933746208    0.43581110733521
C         0.27945722341233   -1.57469965701224    0.33151333744007
C         2.14930966039405    1.44916412574784    0.25736502628697
C         2.02505082525680    2.61935875650115    0.48523206868689
C         2.66291662541639   -0.17866389102927   -1.58859319779666
N         3.43522663266590    0.95764994653797   -2.12062327903507
C         4.78320511723014    0.86379426739182   -2.30078576000509
N         5.46742109829370   -0.22602216070105   -2.24352137049937
C         4.76134084870316   -1.41199860321148   -2.20763026086877
C         3.45430705117203   -1.45612805869904   -1.88970259704374
S         2.58620736426297   -2.96193496361603   -1.77789826981822
N         3.75844385367415   -4.08864016829333   -2.11189980268555
C         5.01798754766238   -3.85478492708379   -2.27294473495575
C         5.70769298701483   -2.54311369270872   -2.43921766206922
O         6.86459517910900   -2.44875868361376   -2.83078942584342
H         4.65098142344289    0.27973653905754    0.57630541626090
H         4.06608666176721   -1.33954331040049    0.75162648553266
H         3.50343575825928   -0.10434323504274    1.88755058861304
H        -0.46525864324668   -2.31999666468054    0.49461540425815
H         1.76110815803112    3.63736240101530    0.67515063289309
H         1.67770056961528   -0.17934692627641   -2.07706799383676
H         2.95939656941846    1.84241896424960   -2.27044470985231
H         5.30023954640472    1.79983111452878   -2.57484393172329
H         5.67897204590113   -4.72770479312182   -2.39071915605138
