26
 energy: -46.148737970051 gnorm: 0.218641720581 xtb: 6.4.1 (79825abcba525fcdf90b791dcacef51065a7a4e7)
C         3.46584968604131   -0.43756036534389    0.91693832563547
C         2.34734708067993    0.04510256446097   -0.03268640143312
C         1.13651417512021   -0.86176908709720    0.11524912687961
C         0.32802352633267   -1.80694807932328    0.50642212495051
C         1.93520208821849    1.45425499607599    0.21504946454832
C         1.46391138623875    2.55030937229381    0.33024056555966
C         2.95097886160392   -0.08197986980909   -1.49944451683713
N         3.81344980901166    1.08132339601654   -1.77073265951304
C         5.07120314661431    0.95928049659489   -2.28207937966649
N         5.55533702029023   -0.18551536916169   -2.61999560145357
C         4.93402006877521   -1.39642998534509   -2.38755498776931
C         3.71771475449726   -1.37169052989979   -1.81192307911559
S         2.73540680450072   -2.77831991403280   -1.51189544695657
N         3.74509113218838   -4.04413873928806   -1.87713549076480
C         4.93587313883525   -3.89109270120684   -2.35220304562876
C         5.64380780396037   -2.65000053001847   -2.77921642911643
O         6.70877071470599   -2.69243662118958   -3.38312632854230
H         4.45341729955386   -0.47624144205215    0.43974240689370
H         3.18113676266681   -1.39633581318243    1.36410505339554
H         3.64317019503876    0.29480324660528    1.71282831439977
H        -0.57095595411688   -2.36114001235219    0.65263712182365
H         1.08644440462963    3.51173282609200    0.60455758720670
H         2.10299120648109   -0.08339557824337   -2.19956858062830
H         3.60924980910778    1.96724491679032   -1.31782831851935
H         5.67838354119093    1.87580255994245   -2.38166216248335
H         5.42603209828853   -4.87680761855126   -2.38171078696649
