26
 energy: -46.146882546849 gnorm: 0.223526412186 xtb: 6.4.1 (79825abcba525fcdf90b791dcacef51065a7a4e7)
C         3.63780172923928   -0.63132833466994    0.90871263488319
C         2.52051085580414   -0.03048026624704    0.02755350960923
C         1.22502706578324   -0.79920973014689    0.23051710133185
C         0.37806730415889   -1.72670754409305    0.58043673556712
C         2.05923489172355    1.33465692779219    0.40248292548008
C         1.70019455053875    2.45129103497725    0.64933798630131
C         2.85503337826769   -0.04081497617297   -1.52804557767343
N         3.66829538784993    1.12099084514061   -1.92747017414971
C         4.93395514367509    1.01769989194024   -2.42320170709333
N         5.44322491263739   -0.14048110453423   -2.66484531850747
C         4.78828393124431   -1.32484558750291   -2.39151277874460
C         3.53602843782516   -1.36253268132358   -1.89978256819489
S         2.64345941603894   -2.84979901766535   -1.74195013245135
N         3.80269619838912   -4.03421649212363   -1.83406612108059
C         4.98486812752848   -3.80772585012961   -2.30123373160912
C         5.62074862155050   -2.52235789312815   -2.71026540378386
O         6.71041989668913   -2.53973710261116   -3.26970124654618
H         4.66878623817921   -0.48602953588032    0.56163748420215
H         3.49330542782212   -1.71673162234396    0.94463495209834
H         3.49135010916560   -0.24305725721764    1.92312743780185
H        -0.51398355100859   -2.29890783120353    0.46423114281734
H         1.58606328924473    3.44290244899482    1.03110633255127
H         1.92649222047046    0.02215884126255   -2.11379670571816
H         3.26129156815970    1.95838590461580   -1.52152149785862
H         5.53431865071977    1.94386165701735   -2.40356761237498
H         5.66311186874943   -4.67467679152516   -2.26744166430960
