26
 energy: -46.148141323108 gnorm: 0.213774996677 xtb: 6.4.1 (79825abcba525fcdf90b791dcacef51065a7a4e7)
C         3.89072619332291   -0.41947003425684    0.77807289888682
C         2.53193444719249   -0.13175371773304    0.10227483842455
C         1.34230895759825   -1.07383940456445    0.18992875426909
C         0.10413298956781   -1.39753513812991   -0.05942666931671
C         2.08823092565718    1.23754650231530    0.48318327388021
C         1.77266218798212    2.38564504244006    0.62104274052870
C         2.80323325384260   -0.11681465533974   -1.46554991134257
N         3.59401790035930    1.07544782485301   -1.81754096501577
C         4.81132902550755    0.94179407568841   -2.41637624547472
N         5.45743004700397   -0.14386332281805   -2.66743807287641
C         4.76980333252349   -1.30181349402085   -2.36297379827865
C         3.51147520496612   -1.40567997368376   -1.89694288150429
S         2.72277071516048   -2.88436817795292   -1.42262430059900
N         3.71051859833763   -4.09488039161847   -1.98313685598588
C         4.90588903302022   -3.86034576262429   -2.41110541242331
C         5.58130458894281   -2.53921755449973   -2.56028909697580
O         6.73653706176483   -2.43216640142373   -2.95352182187495
H         4.58703957448662    0.40474267404096    0.57726689928478
H         4.23308648357811   -1.40259906348150    0.43672756845085
H         3.79383048830294   -0.56908092594673    1.85949219828012
H        -0.78141753109288   -1.98493780619258   -0.14562421116078
H         1.66886763711560    3.39082697791115    0.96875264808215
H         1.83613596752265   -0.04770536973926   -1.98440009502312
H         3.20482946281572    1.99737488281744   -1.64358757654154
H         5.33386366803430    1.87069671863174   -2.70394342718986
H         5.40790210188631   -4.76279111524865   -2.79364386919247
