26
 energy: -46.149699958758 gnorm: 0.228382463981 xtb: 6.4.1 (79825abcba525fcdf90b791dcacef51065a7a4e7)
C         3.85443979356411   -0.00439057429225    0.75261293906736
C         2.57235219761382    0.05651429592369   -0.10665460007520
C         1.58596019275051   -1.03308278389949    0.28093599899575
C         1.04205632470046   -1.99662933835480    0.97070654113379
C         1.88336672299267    1.31774062202963    0.28264517761229
C         1.49117706473942    2.42707150344578    0.51131827923806
C         2.80575142446872   -0.05074739303831   -1.67697953085544
N         3.65458726956127    1.09205642365659   -2.05672290291623
C         4.97182229275011    0.84903767451435   -2.30999584177727
N         5.60086869163339   -0.26718884866289   -2.44216823230868
C         4.79292405254810   -1.37978809534307   -2.31676495727162
C         3.48566262941333   -1.38653302250821   -1.99678866026102
S         2.40758639206285   -2.75346544008979   -2.04969514928165
N         3.44428742566302   -4.00906937014549   -2.37198347742569
C         4.73034924808525   -3.89474797107473   -2.37903094291040
C         5.56203691583774   -2.65921997535533   -2.30427869553765
O         6.78059136475799   -2.74636470374201   -2.21380855107645
H         4.37671776411944    0.95330578947748    0.87321707535039
H         4.51805594724065   -0.62544404901539    0.14091360375021
H         3.60804933207072   -0.45808834368949    1.71940659568334
H         0.30596870953911   -2.73961030306976    1.17765084200412
H         1.04910234278903    3.38260464156680    0.69460105029595
H         1.77473643934824   -0.06279197768085   -2.05923834168821
H         3.39739057569239    2.01465842176795   -1.71859225038394
H         5.55859362620852    1.78040785457592   -2.39273912515862
H         5.26738671703374   -4.84783546503989   -2.50542476133561
