26
 energy: -46.151699024112 gnorm: 0.227963394613 xtb: 6.4.1 (79825abcba525fcdf90b791dcacef51065a7a4e7)
C         3.69088473992300   -0.52961771704481    0.83919799902748
C         2.48574544022596   -0.07249480055972   -0.01196392020280
C         1.29064080009443   -0.99181485286022    0.18037166815790
C         0.28566591537255   -1.81104851794296    0.31791601948144
C         2.02323806771509    1.27915916473848    0.40763782361298
C         1.67904337438420    2.39529095661439    0.67689411285490
C         2.84529375375298   -0.01964289848087   -1.56110314567281
N         3.74304074593456    1.12296277283038   -1.80447633001499
C         4.90649807633700    0.99076266328147   -2.50247602353018
N         5.50947890678446   -0.13024010794605   -2.69970043234955
C         4.86282721566217   -1.29236917563069   -2.32865430676336
C         3.56384144171087   -1.30794111316264   -1.97686426722768
S         2.62598201793200   -2.73951050153641   -1.65347518013957
N         3.67130825852006   -4.00297934093091   -1.91057355137253
C         4.89142037539185   -3.80219883530197   -2.28217504567293
C         5.64829112401518   -2.54383857874586   -2.54197850342684
O         6.80254470764709   -2.67103997476328   -2.93207139126344
H         4.04948264039361   -1.47171912823609    0.40519979502235
H         3.29461783665578   -0.56023412664053    1.86013142942103
H         4.50339253350181    0.20482021784448    0.79830908079125
H        -0.45975959617760   -2.55830517511106    0.46831522362444
H         1.26301734363060    3.37706367841926    0.74838448488833
H         1.98187543120731    0.10261170551672   -2.23104447163025
H         3.55898408377320    1.97679053614519   -1.28603807871639
H         5.40110628442738    1.90038152211936   -2.88529936552348
H         5.45524919607068   -4.74365095071976   -2.37450807852955
