26
 energy: -46.149186738919 gnorm: 0.226206225484 xtb: 6.4.1 (79825abcba525fcdf90b791dcacef51065a7a4e7)
C         3.86943413052165   -0.06448025750423    0.77138206012697
C         2.55110179358762    0.10909132970375   -0.01453870514759
C         1.50889220595661   -0.86888830973066    0.50292861341187
C         0.53710715155588   -1.72688775340042    0.64259795020303
C         2.03746428354900    1.48064089792639    0.25374361124701
C         1.55297486990286    2.54857098850133    0.50176463673187
C         2.75396692777234   -0.15971281961406   -1.56968843825570
N         3.50970069452792    0.95050570357993   -2.17550127069155
C         4.86394897826827    0.85710432684731   -2.30040592255126
N         5.51230227280932   -0.25540698589487   -2.26743396746126
C         4.80258167168665   -1.43726700654256   -2.19074517222736
C         3.47663590385014   -1.45347473445422   -1.96059764806902
S         2.52258845414029   -2.89876477936795   -2.14629053851270
N         3.67384976984556   -4.09187030521110   -2.22538931219524
C         4.95867391002176   -3.96692991382464   -2.25167410755244
C         5.66469923144377   -2.65351830641281   -2.26899175768805
O         6.86609049131412   -2.57164069012355   -2.49395641041539
H         4.65440960075936    0.59501621505286    0.37974463277467
H         4.21296202123131   -1.09932671622564    0.66483965094651
H         3.52887033137450    0.07829324812023    1.80330837804962
H        -0.18937821283269   -2.41427631207343    1.01190488082744
H         1.21052497373089    3.51708366456962    0.79634478934478
H         1.72939549516197    0.02307521957876   -1.92479501093475
H         3.11645878154680    1.85716378742031   -1.94096162744699
H         5.42591515356072    1.70392743851163   -2.73131437800994
H         5.51839546916589   -4.91171657929285   -2.16890729714924
