26
 energy: -46.147982851082 gnorm: 0.234584027180 xtb: 6.4.1 (79825abcba525fcdf90b791dcacef51065a7a4e7)
C         3.53685164097517   -0.28175543847378    0.98726646124562
C         2.41833564386114   -0.02034198051075   -0.04539208627170
C         1.32415817763790   -0.96333819729632    0.42784278285606
C         0.29235815211012   -1.71813627716646    0.68417329161495
C         1.91871218665217    1.36457263420621    0.17672286593943
C         1.77822453000499    2.52739378236652    0.43133887814410
C         2.79400474927886   -0.12695361513140   -1.58792484938397
N         3.66363159934957    0.98823009249291   -2.00125561795070
C         4.99477356334312    0.92732062449447   -2.28876997592173
N         5.64159041145294   -0.18373275041420   -2.36826164863281
C         4.91620998851294   -1.35068398198352   -2.23252045056948
C         3.64056409118024   -1.38597394045009   -1.80491674828157
S         2.69472930569956   -2.83784982336540   -1.62883523769050
N         3.63701488615828   -4.05930717293228   -2.24145245767237
C         4.88080026706953   -3.89652619384669   -2.54735169270475
C         5.62308293745250   -2.60550385041893   -2.62545068978922
O         6.75881143419821   -2.62620950453485   -3.08408568424160
H         4.36488155113965    0.22127122405059    0.47167688391312
H         3.80449058438866   -1.33471897070681    1.12835892992876
H         3.23222652046150    0.13056911805701    1.95599340704544
H        -0.43428991342885   -2.39291243806437    1.07574875905925
H         1.54102336287729    3.56639025347795    0.51063673876235
H         1.91999338113457   -0.13798733295440   -2.25518877880385
H         3.30350954002804    1.93795885491681   -1.99918069071001
H         5.53043224436195    1.88345836825939   -2.42093596914965
H         5.51116263042314   -4.70888651110080   -2.94165414109645
