26
 energy: -46.152117672592 gnorm: 0.222343903909 xtb: 6.4.1 (79825abcba525fcdf90b791dcacef51065a7a4e7)
C         3.62210697964058   -0.43544760072343    0.81222325267842
C         2.37987583379964   -0.05651151600626   -0.02387955590531
C         1.24106140430877   -1.02627405958564    0.24645300718136
C         0.18202951891995   -1.69684908974494    0.60536432184036
C         2.03661818522476    1.36821984886687    0.23929683154908
C         1.88349797191748    2.52259763119041    0.52334826985437
C         2.81368539922834   -0.15422213727725   -1.55167617989959
N         3.56634844827590    1.04245486139446   -1.96663446969084
C         4.92539878722772    0.97139628036333   -2.04566772346850
N         5.61995011553301   -0.09251392311313   -2.25738473972224
C         4.91558394156991   -1.27634172336178   -2.35118045936829
C         3.67916191068198   -1.38775610610335   -1.83136303016801
S         2.73619345820919   -2.83444244051264   -1.60451315656843
N         3.78857143185568   -4.06770200909960   -1.96050679189317
C         4.97006372479051   -3.83384405088715   -2.42575992740868
C         5.58055144261154   -2.53002361753207   -2.81457701614471
O         6.57898237609260   -2.56418177031118   -3.52353603543733
H         4.58739231762030    0.02392977567149    0.56383123148391
H         3.73512170453243   -1.52342849863164    0.87382782233055
H         3.39537338118585   -0.20953049230288    1.86045663838185
H        -0.71722563070449   -2.25662114542002    0.72647184988862
H         1.73998870071259    3.51350528833883    0.89694336736086
H         1.92479402211998   -0.23000876095531   -2.19462818011781
H         3.06960920199676    1.90834932952627   -1.77914095665953
H         5.45916809864812    1.93765912028419   -2.04077824483039
H         5.51686530604104   -4.73862545030760   -2.73420613523877
