26
 energy: -46.149216010499 gnorm: 0.222329312573 xtb: 6.4.1 (79825abcba525fcdf90b791dcacef51065a7a4e7)
C         3.61120749361822   -0.54842527918215    1.00277516529146
C         2.46412870536117   -0.05103620213188    0.09579498857233
C         1.26080881237812   -0.96401154956180    0.26583808308157
C         0.27382364637571   -1.81325685832321    0.19743170081683
C         2.23359496111792    1.40209769091365    0.32427515463640
C         1.93975424884169    2.46873050806955    0.78543799644362
C         2.83973038741994   -0.07279089589745   -1.45028092532288
N         3.57750395201438    1.10573594502351   -1.93761296463209
C         4.79784675253786    0.99605109183358   -2.53514628544753
N         5.43063043356929   -0.11681198823130   -2.67745274850244
C         4.86947217492991   -1.31872656617932   -2.29420302628002
C         3.59497984393569   -1.34113975768166   -1.86231220290039
S         2.68442378525053   -2.81049440708325   -1.64915433460767
N         3.69158030184097   -4.05069533514227   -2.09937365325873
C         4.88739818762164   -3.82234816717460   -2.52943319582407
C         5.65429177246304   -2.54651629668870   -2.61859012959724
O         6.87013329821388   -2.53726207335447   -2.76791438100846
H         3.63082757378764   -1.63749206537129    0.86842283516499
H         3.39481528481282   -0.20207447902233    2.01938001635284
H         4.57056896792481   -0.14365533755168    0.66068343774224
H        -0.61049983232459   -2.40797662062731    0.16657711648976
H         1.68560553288345    3.47088524679430    1.05591999228666
H         1.89511337900648   -0.10094557098910   -2.01256625094236
H         3.15346099794961    2.01325703638469   -1.76947623399789
H         5.15150106282116    1.92584132919958   -3.01370265241038
H         5.46089885378034   -4.75916180287862   -2.60841172219438
