26
 energy: -46.154341886410 gnorm: 0.207803212278 xtb: 6.4.1 (79825abcba525fcdf90b791dcacef51065a7a4e7)
C         3.80945767992189    0.01902076427269    0.88234057832904
C         2.56196521184494    0.00350202919215   -0.02832973452565
C         1.78325394710988   -1.25117018814484    0.33198102417353
C         1.23996736573840   -2.15303262250273    1.10108480109897
C         1.72905280272584    1.20241812359935    0.26459390327382
C         1.15530601139537    2.25400395213472    0.30583685977651
C         2.90463898128024    0.04999613789971   -1.58149219722255
N         3.82583612258792    1.12265427981876   -1.99565185301398
C         5.15630135199160    0.86120726280894   -2.13643937640928
N         5.72117116487305   -0.29501705944408   -2.19298997117503
C         4.89895160933213   -1.40309340834132   -2.14299591677906
C         3.57103029091018   -1.27589878746901   -1.96464444662476
S         2.37498430892645   -2.53777003160315   -2.06811754044542
N         3.24349197109135   -3.87781501686432   -2.52103464754612
C         4.53120712244354   -3.82333858408356   -2.59782046228191
C         5.52828276656385   -2.73439125325224   -2.38840326372347
O         6.73270174825572   -2.91559942298615   -2.51952345263289
H         4.64924808818769    0.62843471283227    0.52475328809417
H         4.24322910798109   -0.98434435157115    0.95562551897747
H         3.49974390154894    0.48048954564126    1.82699069351116
H         0.66402312846206   -3.04716470663447    1.17516372970934
H         0.51120414153991    3.10283487295167    0.38759907453633
H         1.93590287982054    0.11132170759790   -2.09825936843833
H         3.44482675545382    2.05503194579620   -1.86457678173154
H         5.75734932052255    1.77837567207288   -2.26348624414254
H         5.01077807557795   -4.75988877407748   -2.92285254368811
