26
 energy: -46.153114487207 gnorm: 0.220619731800 xtb: 6.4.1 (79825abcba525fcdf90b791dcacef51065a7a4e7)
C         3.56606997632004   -0.41443133550383    0.82031675038525
C         2.45605507820604    0.09175499313842   -0.12701688702662
C         1.17461664085981   -0.63383939811521    0.24960726291349
C         0.31590750696546   -1.61406517491946    0.29218450930610
C         2.18632569032905    1.53525331975543    0.11896228312043
C         1.92996554247112    2.66801553613216    0.41535448090881
C         2.72243461283975   -0.18887226898337   -1.67045166523575
N         3.51441873091467    0.94500729578949   -2.17819783306588
C         4.87491915450821    0.87382270642941   -2.13039876878559
N         5.55576175362331   -0.21221907307806   -2.00352415803363
C         4.86665399501149   -1.40720999439656   -2.06272542351468
C         3.53655721156780   -1.47227181928205   -1.86786073285825
S         2.70232074509727   -2.99140301333885   -1.69511344749814
N         3.85819069047033   -4.17191080803889   -1.85488216344245
C         5.07688013684068   -3.88405657531519   -2.16954075758355
C         5.65205767310836   -2.56910270376362   -2.57437258871970
O         6.64679131571551   -2.42909777094373   -3.27548426935877
H         4.54702949247592   -0.17255506740782    0.39169540406174
H         3.42753964206925   -1.48769732211290    0.99113641415848
H         3.51185740644604   -0.01067079742514    1.83780302512349
H        -0.57669377966293   -2.12215737960899    0.57815108976483
H         1.70910700058643    3.68598432708843    0.65415826142257
H         1.76849609493069   -0.15711951618287   -2.21657603460612
H         3.00943385241367    1.81970457494996   -2.07062521931518
H         5.33990260545372    1.87478227548014   -2.10877033058829
H         5.75077317316204   -4.72338322885750   -2.40226238567293
