26
 energy: -46.152962900589 gnorm: 0.230418798345 xtb: 6.4.1 (79825abcba525fcdf90b791dcacef51065a7a4e7)
C         3.55030546388295   -0.25788113693154    1.02956750942193
C         2.51622760077950    0.11771647671023   -0.05459489477053
C         1.31544398918039   -0.79956522419495    0.11011839756541
C         0.40469817425598   -1.60620667010991    0.57906234524321
C         1.93277507155366    1.48261642109429    0.06193167460565
C         1.45199965887472    2.49715947659506    0.48178464485429
C         2.97654411453694   -0.07039470719079   -1.56609201796665
N         3.91398790993589    1.04236858743026   -1.79779198406820
C         5.06751308398052    0.84643530673737   -2.49729410822582
N         5.60681697907216   -0.30171673262191   -2.72096520773146
C         4.92361131240238   -1.44955753269759   -2.37158130571364
C         3.68755060119645   -1.39988075915434   -1.84144086678699
S         2.61234780884971   -2.75207266642867   -1.61992854298087
N         3.58329219922445   -4.07573830323269   -1.86556302782418
C         4.80427818094299   -3.96047734570473   -2.26927356517464
C         5.60149744685167   -2.75375242630273   -2.63269907674697
O         6.74394033720839   -2.84024027378966   -3.06628653432520
H         2.95678217114672   -0.60982116433344    1.88301363227126
H         4.07529262550996    0.66991181092685    1.28227013932956
H         4.21023219419713   -1.05881352917238    0.67708500916880
H        -0.47471641128862   -2.19239681436350    0.71935752969260
H         1.09829366781702    3.47505283951546    0.72812355379743
H         2.13753819729494    0.03339815209841   -2.26933798162788
H         3.47638404031241    1.94637048948350   -1.64626528639701
H         5.70260654054431    1.70339498057672   -2.78167743622039
H         5.40069015802659   -4.88125453934706   -2.36530753881723
