26
 energy: -46.152667483490 gnorm: 0.223638104435 xtb: 6.4.1 (79825abcba525fcdf90b791dcacef51065a7a4e7)
C         3.76029780190835   -0.27802218457111    0.90524227189174
C         2.53576539715040    0.00311604930176    0.00675443461268
C         1.39670009226020   -0.95105074782875    0.32693158421540
C         0.61785657358541   -1.97213988533072    0.55235679030160
C         1.96844764417790    1.36778362459257    0.18780727056569
C         1.55614766485378    2.38980761006617    0.65918273206087
C         2.89185201184320   -0.06049465279397   -1.54277990224308
N         3.72911074425703    1.11422428583146   -1.84238149205375
C         5.00516776855806    0.95541431834235   -2.29489807835324
N         5.57936300950387   -0.19157969592862   -2.41252083398146
C         4.85319573943219   -1.35422132100157   -2.24722369714933
C         3.55486240944915   -1.39656256851488   -1.89522862829475
S         2.54034428982746   -2.80855632191822   -1.79237765444536
N         3.50053721594468   -3.99089099976992   -2.45213085338760
C         4.71460603964262   -3.78461136044332   -2.84015103430900
C         5.59295572749104   -2.61078796992915   -2.56727345538088
O         6.81040442337732   -2.74102084589020   -2.52838819853859
H         4.17510755164847    0.69515680554324    1.19740231359371
H         4.52139693688270   -0.85407459744461    0.36750477527962
H         3.40836478909821   -0.69432452028181    1.85607107831970
H        -0.23140032805376   -2.57068353531661    0.79147986764502
H         1.17137039705242    3.35139038924349    0.92256691613903
H         1.93435662025107    0.07256996302673   -2.06695081987445
H         3.40513622603079    2.03421529674199   -1.55894900711076
H         5.62533239506080    1.86145889040031   -2.40925071858481
H         5.27127377097129   -4.67348258870416   -3.17599235199255
