26
 energy: -46.148539712907 gnorm: 0.209136348988 xtb: 6.4.1 (79825abcba525fcdf90b791dcacef51065a7a4e7)
C         3.61006144993432   -0.35048249101848    0.94518075428499
C         2.51142755351942   -0.05149375880513   -0.09856634907835
C         1.38385767237916   -1.05985366420920    0.05047702701426
C         0.44673952962255   -1.65660864144283    0.73292107021603
C         1.82915124649582    1.22324948641221    0.25706809468532
C         1.17872285191707    2.23003782362289    0.25080109946879
C         3.01844302908084    0.07796020932076   -1.60125648231948
N         4.03723428203510    1.12558663599253   -1.78906258061046
C         5.09893273970849    0.88954420065866   -2.61088600851190
N         5.50688913902692   -0.28695523329237   -2.94035712138813
C         4.89808792759837   -1.38490515836103   -2.36568796076663
C         3.62548511916006   -1.28829924532574   -1.93847357950790
S         2.62241509792136   -2.64487022467225   -1.50590288067767
N         3.52427368256269   -3.94485058975372   -2.00776159530072
C         4.77624574598292   -3.86143562370966   -2.31219869468429
C         5.63785236411990   -2.66813633267698   -2.55197468699538
O         6.85379467663990   -2.77088741429277   -2.65958737144892
H         4.27228297211565    0.52464466205001    0.95600144147518
H         4.17179563431435   -1.24095600536649    0.64222610577248
H         3.14094745342761   -0.50379239951383    1.92378589977489
H        -0.36204228257649   -2.34579324222951    0.81991650312122
H         0.65900614032880    3.15459831799503    0.38175394706299
H         2.11109648928258    0.22276617577884   -2.20541892464167
H         3.90852364604395    2.02250221771282   -1.33009315744654
H         5.63324416987286    1.77254706213121   -3.00256789154893
H         5.30605235082439   -4.81747813281980   -2.44654188179293
