26
 energy: -46.151125075341 gnorm: 0.213354819041 xtb: 6.4.1 (79825abcba525fcdf90b791dcacef51065a7a4e7)
C         3.52232952012918   -0.47807469615095    0.93352058302548
C         2.38820012531261   -0.02178634381638   -0.01059284118516
C         1.18080996507610   -0.90465431520289    0.25990777637860
C         0.19851581144742   -1.72499342412661    0.01055117755475
C         2.02665713923821    1.40978660375951    0.18132563493496
C         1.73457865190040    2.49471146181586    0.59887482296692
C         2.85561625070423   -0.02762039407834   -1.53157567418294
N         3.84782947017587    1.04847767852847   -1.69966418173392
C         5.01931152903977    0.91554169249012   -2.38396762534371
N         5.47489015057094   -0.23426011958084   -2.74387659811190
C         4.75116343121697   -1.37715034163375   -2.46747259777568
C         3.56411553911728   -1.35262422614226   -1.83369148007844
S         2.76397471563036   -2.83149239809105   -1.37951608706397
N         3.88272476484179   -4.03244542447844   -1.62704422545163
C         4.96189318788349   -3.85947322317482   -2.31446708253362
C         5.54015473742082   -2.58885236630974   -2.83883137116973
O         6.60177774120170   -2.52873614411118   -3.44710484918214
H         4.47665239327368   -0.17412479850401    0.48476198864911
H         3.43827867895976   -1.53669473879657    1.20283257652041
H         3.39593576239524    0.05798224933110    1.88110037845362
H        -0.52273149919537   -2.45100638772196    0.30951459415043
H         1.40745776859250    3.49534550320110    0.78269444236873
H         2.01000099709422    0.06242917756662   -2.22877340841826
H         3.51794708117792    1.98002423477225   -1.46498238291408
H         5.65069778906418    1.80828757365362   -2.53547220072613
H         5.67574609383851   -4.69028988169231   -2.42812497662782
