26
 energy: -46.146961519926 gnorm: 0.223977636176 xtb: 6.4.1 (79825abcba525fcdf90b791dcacef51065a7a4e7)
C         3.55115636612298   -0.30210582822905    0.87227417644449
C         2.37072148567993    0.09174130686128   -0.04274308888658
C         1.23771394737556   -0.79451804068802    0.44843473304855
C         0.41807639543325   -1.67196138309705    0.95669075747200
C         2.09472053650484    1.55356515268683    0.01923746502032
C         1.91374731991701    2.73217004052635   -0.10265710811226
C         2.73740421041369   -0.16228430484199   -1.57013150212699
N         3.52221189138983    0.95180414080773   -2.13014194798565
C         4.87916745847783    0.86898693645590   -2.02951246059211
N         5.52183048143482   -0.24727130104036   -2.02043811870157
C         4.82695790204929   -1.43980593937139   -2.05773200669002
C         3.50760362559138   -1.46835022224959   -1.79343624346497
S         2.70769430568485   -3.01294405997395   -1.70440455731698
N         3.69278183463259   -4.11093342657660   -2.46544459230227
C         4.92011059153095   -3.84646821011127   -2.76676888325636
C         5.67790565686440   -2.60121855029204   -2.45225080795459
O         6.85592084214392   -2.44861184574801   -2.75165923819596
H         4.37629350597964    0.41179970803547    0.75399678376844
H         3.89779853679708   -1.32314118480020    0.67837758622894
H         3.25786278287249   -0.19846780698184    1.92321562420940
H        -0.22676343181735   -2.48922362165980    1.18676821231245
H         1.70414916403550    3.77445693570847   -0.21115977369999
H         1.77472150655057   -0.36959804095467   -2.05954113208416
H         3.11906369775811    1.84796903480798   -1.87316541157126
H         5.46568508911595    1.80309471713062   -1.98437733981472
H         5.57987962386504   -4.53804629634898   -3.31374693249910
