26
 energy: -46.154302615118 gnorm: 0.224314623606 xtb: 6.4.1 (79825abcba525fcdf90b791dcacef51065a7a4e7)
C         3.48412814760890   -0.41818470348409    0.93950463084651
C         2.36630812908173   -0.04703692930746   -0.05975831441229
C         1.22202253809758   -0.98781248048633    0.28078428480233
C         0.29075865211083   -1.72255018621095    0.82202806606146
C         1.91001249763860    1.33234027646473    0.26591013466315
C         1.67372104496189    2.48325419942760    0.50314966557715
C         2.88292919999642   -0.05730041856073   -1.56471610449677
N         3.78194140166080    1.08961336578753   -1.78172694767898
C         5.04170629067835    0.93676078372928   -2.27966459829059
N         5.62841563329621   -0.17815063610375   -2.54776015453178
C         4.90519905090702   -1.34263392778077   -2.38249058692498
C         3.66787116414853   -1.34168759968640   -1.85297992824858
S         2.72630917275479   -2.78424941587603   -1.59602055370359
N         3.66211711280654   -4.01552651280293   -2.19883083573445
C         4.88326748962177   -3.86418999107279   -2.58993577150954
C         5.64171049862424   -2.58959293483945   -2.74481714231836
O         6.75143211930960   -2.67923809365021   -3.25583148255221
H         4.42567583491828    0.08485273811482    0.68466498182997
H         3.74667640864504   -1.47504840093610    1.05941051301837
H         3.22167074321081   -0.01364456296785    1.92373188217816
H        -0.37388455730861   -2.48696873382002    1.15457175921256
H         1.22957176723784    3.43734593750563    0.68890913024704
H         2.04884394375099    0.08447651224505   -2.26718307479379
H         3.34218791614635    1.93550938305125   -1.43136467538279
H         5.55001848780694    1.90092044895563   -2.45462832355877
H         5.34870854444535   -4.78136897285706   -2.98351898913362
