26
 energy: -46.152283738502 gnorm: 0.215674750914 xtb: 6.4.1 (79825abcba525fcdf90b791dcacef51065a7a4e7)
C         3.54857124312717   -0.08076120351046    1.08053421778484
C         2.39171360953622    0.01981395920412    0.06202366079287
C         1.37489600592494   -1.07828011742490    0.32789729846033
C         0.34921644212867   -1.88286383243029    0.30214377297362
C         1.79048343454381    1.36913084502661    0.24860701093599
C         1.49275732335654    2.52923182593621    0.29597775717553
C         2.91114374811566   -0.08484918430160   -1.43835582273679
N         3.83233173636072    1.03148962505265   -1.71390661296617
C         5.17309563973139    0.85404044500782   -1.88472038253464
N         5.74213176305722   -0.25977392733424   -2.19252876354329
C         4.91543138378472   -1.36562444270433   -2.19875197981906
C         3.62971681963599   -1.38892456244092   -1.80156446038164
S         2.71650896613143   -2.86997130674212   -1.72343850392971
N         3.70579758971712   -4.13855854354024   -2.13228379536323
C         4.84984006652148   -3.88105075339543   -2.67258983331743
C         5.52202094887231   -2.56224722964991   -2.85356451349083
O         6.48225232551246   -2.47407796742856   -3.60910133505787
H         3.46188030524854   -1.06425000936850    1.55984248406960
H         3.54139376266462    0.70659846185338    1.84229738869508
H         4.53809683571775   -0.02309907939142    0.61282268467027
H        -0.20908047654598   -2.76116444238871    0.53358322025718
H         1.07016910713823    3.47653664912517    0.55307497544432
H         2.02127192094821    0.04718404167084   -2.07077508842786
H         3.47229277739041    1.96312222518590   -1.52921884682571
H         5.79954375865387    1.76264496940994   -1.86026566457622
H         5.33383790956729   -4.83370460880610   -2.93896763366778
