26
 energy: -46.149743776192 gnorm: 0.219863961098 xtb: 6.4.1 (79825abcba525fcdf90b791dcacef51065a7a4e7)
C         3.64878786571831   -0.26610328490606    0.93691901687546
C         2.47034187375355    0.02620824835051   -0.01786771970306
C         1.37706469528328   -1.01165498733959    0.17707421504787
C         0.23617061382715   -1.64267640658520    0.19154612105257
C         1.82781649839207    1.33715891782628    0.27456452769928
C         1.44361251818102    2.36585791198782    0.75506925837151
C         2.95080662783756   -0.01469923616673   -1.53423866431431
N         3.85114979819873    1.10296766985797   -1.86730132713308
C         5.08470411586392    0.85730278992037   -2.39294940907994
N         5.64920796318653   -0.26988904566630   -2.65734406390661
C         4.85701709116759   -1.36758635472524   -2.38555031170567
C         3.61539145504813   -1.35518914233224   -1.86634434332156
S         2.68879878382205   -2.78884046160613   -1.52048075880793
N         3.73322541078187   -4.04825784819867   -1.80012498737695
C         4.91870576336575   -3.91145318587472   -2.29307009408016
C         5.53864236844002   -2.64018577293413   -2.76570046703367
O         6.62027606422375   -2.57885352134196   -3.33750541849129
H         4.66573888923445   -0.11378849891833    0.55336617845461
H         3.52373884124114   -1.34484540347075    1.08165352391953
H         3.51451611293231    0.21282100579085    1.91356763176918
H        -0.50164218567681   -2.34103951468779    0.51495433562263
H         0.98326363098011    3.31020733174492    0.95089899542916
H         1.98344951116401    0.11165756594614   -2.04169598766620
H         3.56223207361437    2.05712736788720   -1.67292350128964
H         5.70339462323822    1.73084277426246   -2.66266668864143
H         5.36764257805453   -4.89936711089473   -2.48079921245063
