26
 energy: -46.151536883209 gnorm: 0.224740228088 xtb: 6.4.1 (79825abcba525fcdf90b791dcacef51065a7a4e7)
C         3.76438578531939   -0.24062281333222    0.78223687961955
C         2.47929474531314    0.06122126241148   -0.01977924194098
C         1.34828800526886   -0.90346128883686    0.29744108514622
C         0.49493534505771   -1.86039059432371    0.53432141167443
C         2.04837641360260    1.44654908935097    0.31506895035562
C         1.73170868656823    2.48955032276154    0.81365603043737
C         2.78868164976017   -0.08026658992372   -1.57417994711868
N         3.64841859742936    1.04509263544924   -1.98056261303071
C         4.85807891437748    0.91081586484072   -2.59456999204525
N         5.44459396303042   -0.23094997179732   -2.70181471556785
C         4.82071237534733   -1.38761920509718   -2.27841696426268
C         3.50138270177571   -1.36398093268419   -2.01351472793176
S         2.56927428463108   -2.83470303836167   -1.97225834687303
N         3.63235740108128   -4.10857969567326   -2.01971966959026
C         4.89969281339462   -3.87525318916218   -2.10030349489956
C         5.65998215537913   -2.61938506501804   -2.36217573619529
O         6.85947828870604   -2.61340252317823   -2.61082655143145
H         4.62712122891913    0.10812684986268    0.20037505175354
H         3.83755985266002   -1.32471000069430    0.92248813322369
H         3.81676579395827    0.22211032557949    1.77439325284854
H        -0.19888385472091   -2.56606200943808    0.93095019187448
H         1.38990944583457    3.37701544372775    1.30114463444213
H         1.82504747612175    0.06821712555185   -2.08272741661074
H         3.24621007482625    1.96015486283076   -1.80010112894517
H         5.21090172247697    1.82627169630509   -3.10058791895162
H         5.54813992351389   -4.76520867899291   -2.11630303364064
