26
 energy: -46.152778903447 gnorm: 0.224729433583 xtb: 6.4.1 (79825abcba525fcdf90b791dcacef51065a7a4e7)
C         3.75260429092388   -0.25147110399764    0.82176560232288
C         2.51785054482447    0.06978901444834   -0.04885131852594
C         1.39235971479285   -0.80973295139086    0.47088797839151
C         0.50192273282107   -1.75223873090843    0.60815269725743
C         2.06171303082138    1.43745067623013    0.32315307436684
C         1.68176212330009    2.47949382359791    0.77757852792278
C         2.79031086578053   -0.10705562909570   -1.60653933822100
N         3.56126585531290    1.04102880779061   -2.11473064473591
C         4.86377876672617    0.87856058960413   -2.48266758225859
N         5.46974381237988   -0.24674319228299   -2.64275606782664
C         4.80296715581341   -1.41195838729037   -2.32017266779392
C         3.49850031792909   -1.41133068624565   -1.98891954952355
S         2.56479759433320   -2.88161996501917   -1.98831579447671
N         3.67103820999083   -4.11772260913590   -2.04698419828977
C         4.93755375949062   -3.90783785752017   -2.18468247242022
C         5.65579641624241   -2.62959890727713   -2.45681180590840
O         6.84564400784575   -2.52115587064724   -2.72728696809809
H         4.67798716899141    0.17398231111742    0.41291614218319
H         3.83817024171954   -1.33694489311386    0.94298858208915
H         3.60305542429249    0.20293818817017    1.80786257044832
H        -0.24356163482994   -2.46406980416649    0.88058839113078
H         1.37085899336942    3.44833021077026    1.10432231701649
H         1.81973560490671    0.02663717678252   -2.10590759812001
H         3.23187818048723    1.95726605781506   -1.82543843195768
H         5.46486650359875    1.79408845999144   -2.62086927872350
H         5.52770293564352   -4.80839871738427   -1.95343693325439
