26
 energy: -46.155165782800 gnorm: 0.222879579913 xtb: 6.4.1 (79825abcba525fcdf90b791dcacef51065a7a4e7)
C         3.80700797769094   -0.14760891072577    0.92893525653329
C         2.53629848734695    0.04506612764106    0.07221335740309
C         1.50283115905047   -0.94530798610597    0.58360538653197
C         0.65412940876391   -1.88837219962908    0.88422471233965
C         2.05760901716492    1.43989844890682    0.27775240629940
C         1.54229175450908    2.52209817117153    0.27443849185244
C         2.80275346977054   -0.13314805029007   -1.48635716553342
N         3.57368298313377    1.02633393986095   -1.96801792098548
C         4.92511405184688    0.90169014373118   -2.09612486749954
N         5.55989022610085   -0.21260533434085   -2.21668753586456
C         4.83383974074733   -1.38700855247419   -2.21436967549392
C         3.51796350773373   -1.41293381271101   -1.93301515660817
S         2.53781203398201   -2.85189342096549   -1.98044968381951
N         3.54052962180065   -4.04286921096539   -2.55603124586688
C         4.80072572847176   -3.86217973788989   -2.77127795734901
C         5.59508691940687   -2.61168315070487   -2.60077786721049
O         6.81324452592422   -2.62536211295739   -2.72945936383188
H         4.70120405180410    0.23477867814121    0.42031450165396
H         4.07061229125237   -1.20455844842335    1.04572706980904
H         3.67358671789749    0.44561732824556    1.84081315086104
H         0.08529845928810   -2.66385928719208    1.34435811428248
H         1.16625291084782    3.50696109094441    0.44966982561949
H         1.81064509944343   -0.15685032398230   -1.96008488249841
H         3.07393400438500    1.87044634878070   -1.70457508823551
H         5.54354945327040    1.80921999544815   -1.98421114230082
H         5.25346695050168   -4.80875746571096   -3.10560773488414
