26
 energy: -46.150837405369 gnorm: 0.223563486398 xtb: 6.4.1 (79825abcba525fcdf90b791dcacef51065a7a4e7)
C         3.88121816634802   -0.05359142101812    0.78881172771932
C         2.58433916034610    0.11507442819105   -0.03304919320692
C         1.66560688482264   -1.05517260609971    0.27819078732293
C         0.57163500495232   -1.64802420024988    0.66779223281719
C         1.90257229194748    1.40583944653995    0.26032211342489
C         1.34540856223973    2.45402513319591    0.42643788077281
C         2.90228616968872    0.01241916610742   -1.58877161042836
N         3.82380851902247    1.08896464783430   -1.99197660473258
C         5.09954027396956    0.79903351681897   -2.37507166445242
N         5.59346183537073   -0.38625026283719   -2.47643444748621
C         4.79400529751585   -1.47418014546033   -2.18720197341955
C         3.47737900105193   -1.36667778141522   -1.92971179486713
S         2.45135009921968   -2.77384321720098   -1.95620398401278
N         3.45116573501756   -4.08386576797386   -2.15462182115337
C         4.73487925497576   -3.99679683448587   -2.26219811734634
C         5.55767616526751   -2.75327258996919   -2.28397883301800
O         6.75837485357730   -2.78156645562191   -2.52517608390166
H         3.78431125413281   -0.59263260922075    1.73988775332993
H         4.21254512413750    0.94493259376910    1.09449477986215
H         4.75221119056302   -0.52014512500860    0.31453471366057
H        -0.21399976120145   -2.30789447898213    0.95765575107824
H         0.96896429688327    3.42204959350886    0.67800211311537
H         2.01046730523144    0.16199999402114   -2.21450594286128
H         3.36547407271189    1.99485759874764   -1.96092148277636
H         5.70577708436602    1.66617653741873   -2.68993253829114
H         5.20234732356729   -4.95920261449661   -2.52298372028243
