26
 energy: -46.148074587550 gnorm: 0.227669946771 xtb: 6.4.1 (79825abcba525fcdf90b791dcacef51065a7a4e7)
C         3.53655771438936   -0.31046952148931    1.03562073226187
C         2.46064648021580    0.01804271810605   -0.02281840965257
C         1.44595559846409   -1.07878408272140    0.25609164144039
C         0.60908158707507   -1.86008583598838    0.87998764741102
C         1.74771332405036    1.31094053183854    0.16976578873691
C         1.32122570890262    2.39388749529662    0.45621524550098
C         2.98035343122478   -0.00530623091550   -1.52656710360129
N         3.94962697859696    1.10038555733926   -1.61974617348641
C         5.14474338024145    0.90965623676732   -2.24714756762127
N         5.65483463280006   -0.23644259437508   -2.53937169830167
C         4.89012265300120   -1.37218749074140   -2.36139214634834
C         3.58085350487942   -1.31242993062737   -2.05544104299958
S         2.58914241623145   -2.73175214601076   -1.86680047020005
N         3.50998680072784   -4.02401003129987   -2.35390949667461
C         4.75676223219090   -3.88084065112477   -2.65743480002119
C         5.60717182372044   -2.65653460393953   -2.61620464569747
O         6.82481179345324   -2.63624408131579   -2.74885152271976
H         4.51679260296256    0.01618224903292    0.66556648539076
H         3.69974454900610   -1.38122992976220    1.20027822682818
H         3.31689716991572    0.29177237057192    1.92460545976620
H        -0.06144803330841   -2.61536138686646    1.22148508121873
H         0.75192072375016    3.24924829901886    0.75001097911332
H         2.16273206509813    0.33591230696842   -2.17796865167343
H         3.52322090414588    2.01705100500440   -1.52187257962271
H         5.67899788703856    1.83939232638236   -2.50936957903685
H         5.27472128704126   -4.78654810788922   -3.00981645488501
