26
 energy: -46.147363392189 gnorm: 0.229468040394 xtb: 6.4.1 (79825abcba525fcdf90b791dcacef51065a7a4e7)
C         3.61351241208103   -0.03710193274486    1.05383756916561
C         2.50856384011342    0.18926191494874   -0.00145705760725
C         1.41395418891014   -0.82864265679278    0.27443680935145
C         0.44790276891357   -1.66385482091967    0.53749964830482
C         1.73969312912733    1.46066866503526    0.09503035134999
C         0.99185005578456    2.38478081978144    0.24821835581987
C         3.07915991612633   -0.02870191357057   -1.47074685573460
N         4.02842281895428    1.05327515072790   -1.78531552251085
C         5.31159825827989    0.81848945887813   -2.18110569609608
N         5.75661654926732   -0.38314093550370   -2.31215404064694
C         4.96002459460932   -1.50864491943633   -2.24102293638834
C         3.73651012093857   -1.39540173605883   -1.69188629169513
S         2.66038459634993   -2.76291900994840   -1.61838757617288
N         3.56634244796149   -4.09639333642359   -2.01366800612409
C         4.77277836644438   -4.02698272903042   -2.46838616141961
C         5.49592213563225   -2.77296994337218   -2.82662730582366
O         6.48990810074621   -2.80082943284967   -3.54207803123991
H         4.58897069775959    0.19166902162203    0.60590125324468
H         3.55396292974509   -1.03167396806123    1.50941435982672
H         3.42920542579013    0.63769798767977    1.89758865684645
H        -0.18161582223953   -2.44788307190651    0.89201011338405
H         0.35958340985744    3.24559465247285    0.28433810630238
H         2.20994486005554    0.21212787815417   -2.09981359177139
H         3.62984752938815    1.96512117814040   -1.58196488292271
H         5.97753295724713    1.66955619930377   -2.40652493501790
H         5.26413584354402   -4.94171811419723   -2.83524773723019
