26
 energy: -46.153639083386 gnorm: 0.217954954186 xtb: 6.4.1 (79825abcba525fcdf90b791dcacef51065a7a4e7)
C         3.79987830341015   -0.25741311626563    0.77035510242782
C         2.52181675597921   -0.00493115011655   -0.05947032329510
C         1.30165276863150   -0.80258274518439    0.37107492458092
C         0.19526117390594   -1.46339671637062    0.56921452128719
C         2.12444398991621    1.40135185961832    0.22585426710697
C         1.87086699501095    2.56078597930312    0.39357530310851
C         2.78460998852359   -0.12304531872402   -1.62436310031404
N         3.63478371360017    0.97513517834344   -2.11622905762504
C         4.98896290349388    0.81910654002447   -2.12915927311078
N         5.56298384131844   -0.30548030542788   -2.38398265779553
C         4.78009983998605   -1.44215372543622   -2.34598542503912
C         3.48311553762761   -1.43825494559513   -1.98657023504868
S         2.52368105411434   -2.88202008478802   -1.81751579458483
N         3.66276573837994   -4.08761714368992   -1.88218297472688
C         4.92315538787674   -3.90330272091853   -2.09318105251623
C         5.59794187977833   -2.66790126425720   -2.58538846734840
O         6.72518187522952   -2.61767935440988   -3.06231797232789
H         3.66389473971343   -0.99165970191582    1.57465130461435
H         4.20247026143907    0.67278347380799    1.18619630755396
H         4.61770983518968   -0.62457661245256    0.13981370831929
H        -0.57429393269784   -1.96930237561897    1.10635140264631
H         1.71576012537504    3.61004886674181    0.52417186558298
H         1.80157846387418   -0.09986280142538   -2.11667434550712
H         3.26212314062613    1.90407079100519   -1.94337173954944
H         5.58277384388750    1.74873682795472   -2.08704566486957
H         5.53131285260953   -4.81895687728586   -2.02623049422726
