26
 energy: -46.147478093351 gnorm: 0.218700720841 xtb: 6.4.1 (79825abcba525fcdf90b791dcacef51065a7a4e7)
C         3.90307678358498    0.29350790612847    0.79439044885065
C         2.59408203902856    0.19794209121702   -0.01997963392565
C         1.73000269210642   -0.88444770719935    0.60629238909347
C         0.86280378946664   -1.85563077244583    0.67561980149852
C         1.81335556667213    1.46244347233487    0.07194186080744
C         0.95994347023659    2.30040166163731    0.15089106589302
C         2.89423991611749   -0.12678353522451   -1.54849497712494
N         3.75195615132086    0.92542689237399   -2.12112397509960
C         5.08180928076805    0.72859536176776   -1.89515625218429
N         5.71829380444672   -0.39069465575313   -1.92991078702042
C         4.91028425208611   -1.50307986321785   -2.05678600627818
C         3.57826549069454   -1.46029656574592   -1.86901389819941
S         2.49368366874434   -2.82265546543602   -1.83419716606487
N         3.46912255717644   -4.07576704092306   -2.31730210615357
C         4.73201895985607   -3.97800977636031   -2.56752251444295
C         5.56249048185082   -2.73947733482422   -2.58079437334376
O         6.67278852658644   -2.62992146094629   -3.08664984839619
H         4.67494250183688    1.03145946045296    0.54110647243663
H         4.30425586945395   -0.72570196134433    0.77122844057713
H         3.62113676294515    0.57374216687129    1.81577112363756
H         0.12153673608114   -2.46128281004697    1.14506670645848
H         0.29690353918322    3.13738959619739    0.19442788055864
H         1.94018691977633    0.05181321067216   -2.06535554933666
H         3.38244941739968    1.87137813839923   -2.10329303196604
H         5.69041696948068    1.61970949715440   -1.66254124363977
H         5.19308766125891   -4.93323178256651   -2.86370992550703
