26
 energy: -46.150411421307 gnorm: 0.221124647112 xtb: 6.4.1 (79825abcba525fcdf90b791dcacef51065a7a4e7)
C         3.69881176890476   -0.01593617778663    0.92105332378995
C         2.47453433946020    0.06635374008542   -0.01712141725347
C         1.45282628870263   -1.02900898499164    0.24116252792258
C         0.46859210730977   -1.73544637531501    0.72310241816568
C         1.79394960052299    1.38489216338486    0.10619917417845
C         1.21931443729281    2.43673822422000    0.11774916210456
C         2.93738984467105   -0.07236356381548   -1.53317647734470
N         3.95242095986412    0.96983055894692   -1.76613814580466
C         5.27531460442884    0.76972248140819   -2.02733264159132
N         5.79436772436165   -0.38244574505638   -2.27677762604367
C         4.90866594753400   -1.44163660740621   -2.28174595326982
C         3.65631965619028   -1.40120624749099   -1.79046507313638
S         2.58900428884208   -2.76429901481194   -1.59976183735170
N         3.53960865059829   -4.04859312905141   -2.04931717793594
C         4.76621967197316   -3.94795358328981   -2.43966464252521
C         5.50679987186976   -2.70587834045601   -2.80382361598147
O         6.56270951027373   -2.68472566748071   -3.42451790091424
H         4.57953831938867    0.35157665546716    0.37905976057196
H         3.80314477418489   -1.00411095478215    1.38245891794209
H         3.54416906565119    0.72154089623560    1.71695099215628
H        -0.36278854792324   -2.40220766542799    0.75322245117592
H         0.75966176372406    3.38813081204262    0.27786714855068
H         2.06245485524192    0.19394226675643   -2.14377350646918
H         3.60788976738113    1.92529120203035   -1.77451337759220
H         5.81018879083586    1.73400519417181   -1.97570015187750
H         5.27382813573333   -4.89000230568575   -2.69973821635294
