26
 energy: -46.150805988095 gnorm: 0.213564672578 xtb: 6.4.1 (79825abcba525fcdf90b791dcacef51065a7a4e7)
C         3.87248288272892   -0.29747748919297    0.77431558063381
C         2.57755760680521    0.02851955194370   -0.00201758062590
C         1.52522615008102   -0.96603280446410    0.46045575413812
C         0.37680473415510   -1.57522750200972    0.36022170537490
C         2.07154002555977    1.38421670878547    0.34866543340521
C         1.59246312737551    2.34646214614769    0.87903150259523
C         2.73135419888677   -0.12350063870232   -1.57844935345620
N         3.50442078381697    1.03062912748892   -2.06944877822722
C         4.84159145220715    0.92593993734970   -2.31302254881362
N         5.47723982126477   -0.17364985581442   -2.52746135822842
C         4.81659688295488   -1.37292522412351   -2.34950881407058
C         3.52668700538624   -1.37511791709985   -1.96546394977539
S         2.60001987942660   -2.83087416642443   -1.72963880253492
N         3.65156632741935   -4.02723370060701   -2.19668693921150
C         4.87685885002474   -3.88282038267453   -2.57731417014510
C         5.63570536822645   -2.59909589505521   -2.58232463787892
O         6.85560926355191   -2.62468043981147   -2.69110842427298
H         4.62187396881153    0.50222000545273    0.83261549645219
H         4.33321568901496   -1.23138870590113    0.43401422573944
H         3.54089199239575   -0.61333498196866    1.77006727067262
H        -0.42006868500583   -2.09272576948893    0.84381237791714
H         1.31046039483588    3.28411182671533    1.30722976254456
H         1.75591394102058   -0.16338931357065   -2.08459554693284
H         3.22863811411690    1.99578601780417   -1.91422950230488
H         5.40055706703107    1.83197876376403   -2.60499609062042
H         5.47477845098066   -4.77489730198006   -2.82114061007609
