26
 energy: -46.154037670461 gnorm: 0.216453029787 xtb: 6.4.1 (79825abcba525fcdf90b791dcacef51065a7a4e7)
C         3.66961774921092   -0.28817912823251    0.92615025862572
C         2.41476533505104   -0.03865128793414    0.06077173752108
C         1.24125849580056   -0.95337872369613    0.37153347805348
C         0.18429100873875   -1.69354411929403    0.18441936249689
C         1.86421182973747    1.33931833086126    0.18340008668014
C         1.49710468395943    2.45087297928655    0.44107764953525
C         2.92575384271147   -0.08990379663498   -1.44527095017334
N         3.77836996277034    1.07673123146853   -1.73291021293620
C         5.09028912794434    0.90559542522965   -2.06138249223514
N         5.65860017555598   -0.20722242911766   -2.37409568152970
C         4.87677516340920   -1.34410194295084   -2.32279043345834
C         3.62621962112239   -1.39816228096108   -1.82826938114385
S         2.70031305469496   -2.86327360452460   -1.65593963048244
N         3.74732431631495   -4.11644374804146   -1.95341574555518
C         4.94267409083167   -3.85016587319947   -2.36245006139067
C         5.60577626606011   -2.57327389817251   -2.75445018372342
O         6.62222187927578   -2.58292270059942   -3.43811619484410
H         3.87967961790633   -1.35651659778748    0.78819726332338
H         3.50854688660600   -0.07777294995345    1.98919085382434
H         4.47210758815764    0.29034093713711    0.45438284442307
H        -0.67028355817002   -2.28922062237146    0.41145117656837
H         1.15521755954490    3.44869528741425    0.61292073931729
H         2.06376032896006    0.04532873791938   -2.11455274174927
H         3.36520158382300    1.99477987920417   -1.59816789033994
H         5.64455617879045    1.85679033520491   -2.14270739422207
H         5.54711157249273   -4.73324304182704   -2.62243171560777
