26
 energy: -46.151830727288 gnorm: 0.222107050852 xtb: 6.4.1 (79825abcba525fcdf90b791dcacef51065a7a4e7)
C         3.78925967201100   -0.33892870637521    0.73265511545476
C         2.50667104329986    0.08985124014948   -0.01361083249928
C         1.39459852724701   -0.82763955827062    0.46797279762582
C         0.93099550035955   -2.01528322079667    0.74112392604062
C         2.07267311033821    1.47045826371737    0.33641367132363
C         1.63405671750759    2.56944711934995    0.52761580041398
C         2.76404995688704   -0.08989181913068   -1.57353043252386
N         3.53122608958327    1.03924023568836   -2.12781326785251
C         4.86056253675561    0.88712964778230   -2.38865876488149
N         5.56834071341112   -0.18900982473904   -2.39887871469607
C         4.82956532613783   -1.34041621468407   -2.21219222652443
C         3.52739322416164   -1.38425800493152   -1.87486678237527
S         2.51190333582581   -2.79858905942549   -1.91958424904757
N         3.51432526566895   -3.99090295791078   -2.49290603525334
C         4.78450877981936   -3.79540736744652   -2.61736234467185
C         5.61815515116194   -2.60625842306649   -2.27857006003400
O         6.83167732287603   -2.71340637605278   -2.14997284030880
H         4.62120771364707    0.16117902736409    0.22054509434933
H         3.91444428231871   -1.42391059319463    0.64655628978040
H         3.77492836617377    0.01835599207765    1.76869669507418
H         0.22498273009889   -2.78223702517647    0.96472951994403
H         1.24660550664725    3.55449055121433    0.67471167794435
H         1.80713065727141   -0.13268949724940   -2.11365317694257
H         2.97483904569891    1.88602343380794   -2.05661919698181
H         5.46376262472352    1.80769332660181   -2.47415510923970
H         5.28456612062201   -4.73596927069661   -2.89673015298456
