26
 energy: -46.151861249799 gnorm: 0.217046182378 xtb: 6.4.1 (79825abcba525fcdf90b791dcacef51065a7a4e7)
C         3.89798262335620   -0.23889262887364    0.82491102008984
C         2.55469781344742   -0.01595951872676    0.09574338465946
C         1.45402545158153   -1.04773050034649    0.28117915287420
C         0.37340780481597   -1.64976098278167    0.69332180346002
C         2.11862128423764    1.37076678686809    0.41788393504317
C         1.63825989728929    2.43481973781585    0.68947804250328
C         2.75859507477941   -0.10189408530926   -1.47999193747809
N         3.57912337000322    0.98119968802637   -2.04952602594086
C         4.91030233030716    0.90830901527808   -2.33406586993036
N         5.56925867455503   -0.19656772453934   -2.39852120305944
C         4.83110026860057   -1.34057691667214   -2.16886332059800
C         3.51856950190428   -1.37345864855170   -1.87298405836101
S         2.59353349598882   -2.84712317660115   -1.79441589534294
N         3.58224052731120   -4.04631255277110   -2.37713647571735
C         4.83308737596317   -3.87126827096423   -2.64512103162839
C         5.57966431089189   -2.58819003411098   -2.50315335563387
O         6.78439388837240   -2.52608224086707   -2.71628071002215
H         4.60471542646004    0.55508699529694    0.55173147941727
H         4.33289282181061   -1.22710381505823    0.63900336256652
H         3.70483591906904   -0.32367189635009    1.90043262520465
H        -0.39163301882305   -2.39143672972999    0.72939466672266
H         1.13857598751337    3.33122107608406    0.98754990338890
H         1.76067675320755   -0.08911074339183   -1.94178667358609
H         3.16038844051065    1.86610130207686   -2.32024195817544
H         5.45554041090109    1.81729213295522   -2.64238807968422
H         5.40566798605430   -4.72364807083208   -3.04306642139481
