26
 energy: -46.147068731432 gnorm: 0.223175726431 xtb: 6.4.1 (79825abcba525fcdf90b791dcacef51065a7a4e7)
C         3.72560815784957    0.15749572636527    1.09183161554944
C         2.53079435218954    0.06187961865516    0.11762618123395
C         1.47945795440880   -0.99145593294371    0.42680806300056
C         0.37869212524782   -1.68394970071187    0.33297979763647
C         1.82489007288822    1.35236117084658    0.34850200922466
C         1.25546495396187    2.38218226791759    0.57641132532037
C         2.95789852983795   -0.10226347655617   -1.40636190882981
N         3.79503067640845    0.98680305306548   -1.93915806261859
C         5.08669961448371    0.82699036894602   -2.34457717651933
N         5.67026280612886   -0.31769302529535   -2.43559635830112
C         4.87951279354785   -1.43954118380183   -2.28543398972277
C         3.62756675872046   -1.42588198722203   -1.79166551224403
S         2.66347564756750   -2.86843180210527   -1.63957978637836
N         3.62879427352535   -4.11229774354436   -2.16504862471032
C         4.82977219754912   -3.94680029001019   -2.60927456180179
C         5.59852479418324   -2.67373701449050   -2.71950637913875
O         6.66265028524821   -2.70290342158553   -3.32567488857389
H         4.49822773148737    0.81122443208964    0.66733222152157
H         4.21504373258600   -0.81437605116173    1.21906350853811
H         3.48752627776496    0.46159106528830    2.11754255808307
H        -0.51868451049027   -2.25791665156558    0.37712435882279
H         0.82689677304413    3.32265878222683    0.84825585805230
H         2.03148506645434   -0.15313136340183   -1.99664093460989
H         3.24538567459773    1.84072343152329   -1.91947853277711
H         5.55157089379572    1.82510310692005   -2.42371702440655
H         5.36883995182805   -4.80092518780653   -3.04817891510296
