26
 energy: -46.148739322792 gnorm: 0.230405207123 xtb: 6.4.1 (79825abcba525fcdf90b791dcacef51065a7a4e7)
C         3.95950143626394   -0.18413531128105    0.76182392030873
C         2.65415407989239    0.09213998363441   -0.01633990296363
C         1.60578102821914   -0.93090439954787    0.38950682312984
C         0.61397091057510   -1.69612785712811    0.75114547035942
C         2.17143317520336    1.46538606232355    0.29690578483612
C         1.47319233628724    2.43590154231733    0.21159138735830
C         2.80924507233245   -0.08007221103222   -1.59056681838819
N         3.65886999962979    0.97367427389324   -2.17236034970533
C         5.01512907508042    0.83776514574484   -2.15227477990948
N         5.60111669517631   -0.30929432283128   -2.15418467068568
C         4.79174734167146   -1.42032988616320   -2.28418015644219
C         3.46758124306267   -1.38707929230960   -2.04576605322386
S         2.38859199052176   -2.75115642028994   -1.95288181574988
N         3.46366267484080   -4.01546994353638   -1.98278777864751
C         4.72911129449753   -3.91785158953321   -2.21982048554540
C         5.54197805364422   -2.69560396220401   -2.48284152145433
O         6.73399228496889   -2.74545689542332   -2.76081768677645
H         3.78119925586741   -0.73532050594229    1.69397475181532
H         4.36744309984691    0.81266118039440    0.96244855698369
H         4.72370412272706   -0.74831490347230    0.21507394502812
H        -0.12445104402178   -2.42068921064462    1.00885748989399
H         1.08521828538334    3.42280578730099    0.34411442885073
H         1.75991697465448   -0.05515564067180   -1.91851266233418
H         3.36612624399795    1.93867096567360   -2.29384862894494
H         5.63685334802203    1.74743368685928   -2.08475046837413
H         5.35000643224468   -4.82496197431599   -2.28615591800554
