26
 energy: -46.147030123591 gnorm: 0.226109385758 xtb: 6.4.1 (79825abcba525fcdf90b791dcacef51065a7a4e7)
C         3.72510532823858   -0.02487819693996    0.90465252871591
C         2.45220697626040    0.06324936577127    0.03415726174315
C         1.58739670161429   -1.13615938204759    0.38620735383176
C         1.24239027597189   -2.35189842553130    0.70712152376579
C         1.72775711029293    1.35185280273824    0.21197933744104
C         1.35266886658544    2.47342183732516    0.40719924893411
C         2.83197710795633    0.03119557780560   -1.51072067449726
N         3.75832351627219    1.12880434335720   -1.83914905450336
C         5.09872014958566    0.93166925644430   -1.99010604854083
N         5.57671281864544   -0.25206211410953   -2.16166828781948
C         4.79600047152699   -1.39078624765505   -2.17482760860348
C         3.48357954290278   -1.30319364269450   -1.88979853435247
S         2.46060441335905   -2.70141964625518   -2.06878909134401
N         3.38593914377790   -4.00245536583497   -2.52290550431148
C         4.65991529122040   -3.83929845165723   -2.65496098232785
C         5.53889316472109   -2.64511272951094   -2.49640486017760
O         6.74890664310643   -2.79417572711545   -2.61599409955722
H         3.88481283639586   -0.98868521761184    1.40472402007371
H         3.69513251144492    0.72928925978081    1.69875766367860
H         4.60145471971608    0.08495860139222    0.25566291584583
H         0.85351526244708   -3.31392288671826    0.95198226551681
H         1.15425840183698    3.52332874629693    0.38732529017910
H         1.89114605631132    0.09341272840986   -2.07660469332011
H         3.41977844061105    2.07688676383847   -1.70422731408193
H         5.73135847337459    1.81983653529550   -2.16193471079112
H         5.09654671448949   -4.80296052044431   -2.96068769674716
