26
 energy: -46.149778688722 gnorm: 0.225760966432 xtb: 6.4.1 (79825abcba525fcdf90b791dcacef51065a7a4e7)
C         3.71923197947810   -0.39932568708729    0.78687601455839
C         2.45942009313000   -0.00633668644197   -0.01576485236088
C         1.30896117315524   -0.94351410286772    0.31371991235663
C         0.27142499227858   -1.48605465135942    0.88748397661340
C         2.00170414480788    1.34682825764507    0.40422071506873
C         1.60346453972747    2.47027105008363    0.53071428016455
C         2.78997571108249   -0.12902845772508   -1.56740281127740
N         3.64852753584844    1.01895756568162   -1.90761559451174
C         4.94793468515815    0.90252808277918   -2.30296181639067
N         5.53416331329756   -0.23918829056249   -2.41227916814474
C         4.78698866193844   -1.39630163717560   -2.31638151768166
C         3.48704794233021   -1.43328399570945   -1.96975608805936
S         2.59746801969394   -2.92993087119663   -1.92234937080721
N         3.76203384745070   -4.04910164933652   -2.30497612362433
C         4.99645501298184   -3.84305301980777   -2.62250157524598
C         5.71368371811280   -2.53624767366006   -2.58170350097536
O         6.92924904796245   -2.40257388783303   -2.50968788098374
H         3.81118628254103   -1.43626000058835    1.13445851533137
H         3.79866372794373    0.16494446660025    1.72258947515474
H         4.63467322992113   -0.12648191951939    0.24950882770638
H        -0.57028262182085   -2.08534194701895    1.15026651169303
H         1.25725776970703    3.42748695501665    0.85620589741233
H         1.81821628444799   -0.02628056646417   -2.07176900134131
H         3.13211372790257    1.88434745378557   -2.03447790634528
H         5.56539089397906    1.81072749778001   -2.41485065139024
H         5.51087478187826   -4.78294434128651   -2.87693627975342
