26
 energy: -46.149709546855 gnorm: 0.218976637150 xtb: 6.4.1 (79825abcba525fcdf90b791dcacef51065a7a4e7)
C         3.58115528592714   -0.35764758238772    1.01062512266664
C         2.42118106759792   -0.08027708074298    0.02913436362257
C         1.19031113016077   -0.94548825963043    0.24543563786291
C         0.33381669493411   -1.86267618516621    0.59930052043638
C         1.90413916810082    1.28717907310954    0.31140813070750
C         1.57627880662982    2.42416619502184    0.50242379331084
C         2.87654735961094   -0.04183723956691   -1.49502591229479
N         3.69205247744423    1.11437905524935   -1.90593118947335
C         5.01718815547637    0.94114218752966   -2.17485090674970
N         5.60959882815118   -0.18064600375835   -2.39794596926572
C         4.87532455286212   -1.34481665961471   -2.28874169081345
C         3.59486600640472   -1.34147722496748   -1.87428120162281
S         2.70630621024605   -2.83827949144267   -1.81431321795543
N         3.69523070124095   -4.05011836349231   -2.36986242621904
C         4.93152369306551   -3.85610110756421   -2.68768470162209
C         5.66143710977324   -2.55584223023911   -2.66832110965611
O         6.86854335258929   -2.50586191777588   -2.87093028175942
H         3.32107396871767   -1.21277552818586    1.64750491159049
H         3.52086433871990    0.44954874201263    1.74891299795602
H         4.54305546956898   -0.51466897321938    0.50929467921921
H        -0.57645320539757   -2.33958148946466    0.88327528309857
H         1.15519008265497    3.39621265035829    0.64340671885454
H         1.91563696946010   -0.00799060712888   -2.02865911456050
H         3.46629873676085    1.95884851646151   -1.38864645106551
H         5.69763400523860    1.79841141878240   -2.31865760961008
H         5.47040083061167   -4.71371219178551   -3.11997519096018
