26
 energy: -46.153199660955 gnorm: 0.219357769633 xtb: 6.4.1 (79825abcba525fcdf90b791dcacef51065a7a4e7)
C         3.80678008503666    0.31110304111303    1.04910541472157
C         2.63037038925990    0.14599397846885    0.06188814846461
C         1.62501912206995   -0.91705790274481    0.47372183318439
C         0.59570477817119   -1.67959980792700    0.71678274006127
C         1.77242139865311    1.36281603282156    0.04723308675940
C         1.08027624352590    2.33384928319043   -0.07421087165614
C         3.00102716331412   -0.10146735832714   -1.46561867604164
N         3.88872135886595    0.95148342677776   -1.98908935445787
C         5.22889948382279    0.73704988252900   -2.11658152115860
N         5.76926874158847   -0.40934986592684   -2.34657988840847
C         4.92924791315471   -1.49785194202530   -2.22046150335139
C         3.65970641446481   -1.44999974965183   -1.77623485925223
S         2.57281639757048   -2.79418436382739   -1.56318667924714
N         3.33089708611622   -4.01265027616725   -2.39734165413255
C         4.58241818749877   -3.95956554372294   -2.71031291166239
C         5.51869051527663   -2.80044008816915   -2.64994722710209
O         6.69159119531480   -2.93209281702526   -2.97801056734645
H         3.30714414562221    0.52318342965236    2.00298580697548
H         4.47397490425147    1.14535393587776    0.80590507143956
H         4.43246663557414   -0.58874957516024    1.05374303713312
H        -0.14324507363557   -2.18536709550940    1.29542269874984
H         0.46419607539599    3.19858378885400   -0.19564264520214
H         2.04965555958188   -0.02498284696994   -2.01178803173861
H         3.48118596914092    1.88178477230299   -1.97763336483250
H         5.83831296130231    1.65630263412036   -2.06981557483878
H         5.01423735695384   -4.85648245981740   -3.18130406414783
