26
 energy: -46.147479318259 gnorm: 0.222260928790 xtb: 6.4.1 (79825abcba525fcdf90b791dcacef51065a7a4e7)
C         3.50358350079093   -0.40040683349416    0.87991738884734
C         2.35449254866621   -0.01937368294797   -0.07935442673396
C         1.20218941046214   -0.97260147587933    0.19262290616606
C         0.18814526544309   -1.69133374735252    0.58654567588331
C         1.81698727119600    1.34810656276257    0.16154591617346
C         1.54520606468489    2.50760183391922    0.29728388856264
C         2.93409409791788   -0.02348362295501   -1.56122681769082
N         3.92923835869231    1.06095150597693   -1.62768154356058
C         5.11198346408076    0.91233519252338   -2.28899886867717
N         5.58969535643322   -0.23475716258424   -2.62826431107936
C         4.80757008940616   -1.34979470803149   -2.40166124653157
C         3.52431757156153   -1.36927381658677   -1.99638813077651
S         2.72487438257843   -2.84124486523908   -1.51916331376394
N         3.76989455047599   -4.07147250193944   -1.90598735457688
C         4.95270967565842   -3.89075680161507   -2.39113091792446
C         5.59836129496060   -2.58143797029923   -2.69549893408859
O         6.71800068529802   -2.53690780767858   -3.19055317401079
H         4.47009679628987   -0.54192270991857    0.37959023041167
H         3.17294864826420   -1.25839639431690    1.47557198387437
H         3.73116287199050    0.43966500471842    1.54604562972217
H        -0.38512864177490   -2.51308911595529    0.95088996807454
H         1.20782603513120    3.51819441550789    0.38061187935806
H         2.12022758449801    0.25815684584607   -2.24500946396415
H         3.67128340341056    1.97920421866799   -1.27847083338980
H         5.81131293510386    1.76037614132113   -2.39079424177500
H         5.41849723997528   -4.83892161478023   -2.70223515090007
