26
 energy: -46.149759613958 gnorm: 0.219582714111 xtb: 6.4.1 (79825abcba525fcdf90b791dcacef51065a7a4e7)
C         3.45587692541983   -0.66753439661370    1.01745206271260
C         2.38144780915359   -0.10095344829022    0.06331014435494
C         1.16118005654114   -0.99852912174541    0.18869732884406
C         0.13127683159895   -1.74913809279564   -0.08684265168129
C         2.06497351796673    1.29373421361826    0.47760166650363
C         1.96064308254390    2.47955199048118    0.61785309745111
C         2.87714260952740   -0.04914434118992   -1.44781629392765
N         3.73011354515754    1.12545078707614   -1.69979792679720
C         4.92882333147727    0.99404220160803   -2.33551800960304
N         5.50627818584414   -0.09900560508066   -2.69735075953487
C         4.88395606021820   -1.29589129220846   -2.40314434039957
C         3.66176073024528   -1.30600647451914   -1.83967384463316
S         2.82042046636067   -2.76389387125628   -1.39216674748198
N         3.85763658172060   -4.01464362559077   -1.73123578164233
C         5.00470336946481   -3.82584919296779   -2.29307962567521
C         5.50736624177134   -2.55887209329841   -2.89799347317981
O         6.40283882914348   -2.62411232575009   -3.73137606762325
H         4.33557532716695   -0.01311866195225    0.96874137460021
H         3.89857258073240   -1.63082885971680    0.74112938883935
H         3.11888999038819   -0.59551658760472    2.05788136672123
H        -0.79520391134069   -2.27152129083059   -0.01321621555201
H         1.90145647522658    3.50326169141830    0.91882086579677
H         1.99038495320964    0.08363891797130   -2.08443881065809
H         3.39309791778313    2.03532696566831   -1.39942694534268
H         5.36265698536280    1.91764422156146   -2.75664165761762
H         5.74978923060284   -4.63388999577258   -2.36147211017021
