26
 energy: -46.151917735454 gnorm: 0.221901147057 xtb: 6.4.1 (79825abcba525fcdf90b791dcacef51065a7a4e7)
C         3.91522407196013   -0.24900107513258    0.72156221926779
C         2.57733704322728    0.03994522782835    0.00576404014903
C         1.59203384288870   -1.05697514159321    0.37503460094476
C         1.02363653850782   -2.18754642004637    0.68931132234495
C         1.91708666976663    1.34180034539379    0.29934508276656
C         1.46845337097750    2.43637155845318    0.49263536439935
C         2.77132426910334    0.06139029511544   -1.57341604013690
N         3.67749662461730    1.10398070064846   -2.08584632517007
C         5.02679013266692    0.94308706052802   -2.19462898374186
N         5.54526770907902   -0.23138041837514   -2.29921247998951
C         4.75131941362238   -1.35625052048602   -2.19581534044257
C         3.43555158741800   -1.27433322987193   -1.92487743798710
S         2.46390994224044   -2.71773981977194   -1.84714941634444
N         3.43021716842949   -3.94989405159216   -2.39779115305514
C         4.68466718073423   -3.84163391201691   -2.68363896436522
C         5.50590411367714   -2.61861959090839   -2.45206268034927
O         6.72604948903074   -2.69604203570055   -2.37521851151646
H         4.70025742809591    0.51276442782471    0.63246728766730
H         4.27581713819310   -1.25262213346871    0.47058950932824
H         3.66298410246391   -0.35380493025929    1.78299099649178
H         0.41427427399490   -3.05613154109638    0.79375817763660
H         0.99248967331485    3.36177186347550    0.73586168015700
H         1.77303422655288    0.22493249543519   -2.00461171147724
H         3.39981635064771    2.07063465511164   -1.94389307834628
H         5.72299350685841    1.79395206953580   -2.29426360236976
H         5.17074171280905   -4.74532457936486   -3.08343283365969
