26
 energy: -46.149876410754 gnorm: 0.213939329824 xtb: 6.4.1 (79825abcba525fcdf90b791dcacef51065a7a4e7)
C         3.52214428190388   -0.52241603545390    1.00109483572791
C         2.44093509782338   -0.07640822352815   -0.00779685176732
C         1.21157400951808   -0.96993462282329    0.01864825950201
C         0.28476377339671   -1.75627177030259    0.49059471789329
C         2.07018692712460    1.32520794552309    0.33126811837299
C         1.96513113635815    2.49626855653725    0.56429053255340
C         2.81914887521082   -0.07429157146611   -1.55338752013783
N         3.64833117611384    1.09903056973212   -1.87973050160373
C         4.95332981497995    0.97166447105814   -2.25265116688641
N         5.55990384830139   -0.14128863246307   -2.48185388994725
C         4.84335907389184   -1.30333381029280   -2.27547514652559
C         3.56169426894396   -1.37675055932355   -1.87136123781129
S         2.68496518254097   -2.86694877492235   -1.66110643537394
N         3.72050904998907   -4.10987298149102   -2.03252040994020
C         4.90640158781329   -3.83366161935104   -2.46198545672049
C         5.60081132169569   -2.52957048088743   -2.66437892493574
O         6.74709583116465   -2.46005172001816   -3.09082113555786
H         4.22995159543275    0.26846872374514    1.28040123751627
H         4.10075633024231   -1.35679768798476    0.58965195332395
H         2.98814607125129   -0.68230758471952    1.94476877470815
H        -0.56335933932843   -2.36627332809674    0.27785797226563
H         1.85378090287534    3.50789010293085    0.89031075314171
H         1.85844812198619    0.08104660394883   -2.06542548756047
H         3.21595809997420    2.01722092391380   -1.92043574555371
H         5.52756209001903    1.91016179869175   -2.34252617261275
H         5.55018779252991   -4.64612351932328   -2.83374531870114
