26
 energy: -46.148838154983 gnorm: 0.211679877918 xtb: 6.4.1 (79825abcba525fcdf90b791dcacef51065a7a4e7)
C         3.52656782239035   -0.37591618163631    0.96057075468400
C         2.37775277923827    0.02324093462482    0.00836474424588
C         1.15419055447868   -0.81892401236042    0.33096527731888
C         0.16703147095985   -1.65798891128215    0.18425535921803
C         2.18668488288178    1.48791167756161    0.19592749793239
C         2.29408741627909    2.64304069663187    0.49735866144826
C         2.71566981123105   -0.20165831366493   -1.53018425810746
N         3.43986796353557    0.95930992790989   -2.07646042958694
C         4.79983695855914    0.90061350649955   -2.14962093683239
N         5.51006941405983   -0.17381079263093   -2.16730842332782
C         4.80719300095230   -1.35135917496789   -2.32768971354119
C         3.54722066411090   -1.44504276861699   -1.86394858373047
S         2.70388866361117   -2.96345616011915   -1.73447423562089
N         3.91011721566146   -4.09453602898135   -1.87880385150480
C         5.12404957924670   -3.84271788313563   -2.23940043774307
C         5.63499665924492   -2.52850936545723   -2.72479795822905
O         6.62223346776013   -2.44301744523794   -3.44501223628453
H         4.31850699324084    0.36587579261216    1.12512765627382
H         3.89039438635948   -1.37032859888788    0.67942299286364
H         3.02743687208664   -0.51400869673210    1.92651001318690
H        -0.57816613584040   -2.31923615940404    0.56386598921440
H         2.36347893847805    3.63233330062805    0.89554349605886
H         1.71197888173096   -0.28721872875925   -1.97125420462169
H         2.97819802285455    1.86195724607639   -2.01509588757672
H         5.34295691833338    1.86011476917648   -2.20416904609805
H         5.82708915032804   -4.68913979653577   -2.19395029062730
