26
 energy: -46.147043949478 gnorm: 0.221117074844 xtb: 6.4.1 (79825abcba525fcdf90b791dcacef51065a7a4e7)
C         3.75876335288125   -0.17876143975451    0.91036764524992
C         2.53682129962919    0.03404933502785   -0.01015823545546
C         1.40917043387942   -0.95247896718487    0.24593332088201
C         0.34310114254378   -1.47262728969824    0.78720845138733
C         1.93999151085669    1.36448650834523    0.29097010408436
C         1.29828057840358    2.19524186627526    0.86956472734173
C         2.93466337573805   -0.06687148876459   -1.54750572803986
N         3.74922184817414    1.06608217755443   -2.02040990820793
C         4.97702978593533    0.85217351667680   -2.57271792709469
N         5.58612333646886   -0.26503413235227   -2.77267461075945
C         4.91682877562501   -1.40546654870172   -2.37538844390569
C         3.63705713598396   -1.36484084851483   -1.96078398257236
S         2.63685854128452   -2.77876480368554   -1.77646487627254
N         3.56318241091634   -4.01717175925405   -2.37931836629768
C         4.84062272378072   -3.95849740333480   -2.55758117514556
C         5.64372445835207   -2.70810645775634   -2.43359815175436
O         6.86515911676945   -2.72564833679424   -2.34170878041832
H         4.28053264309289    0.78666485545964    0.89584726544756
H         4.34998544538868   -1.04632074867309    0.59721085985131
H         3.49491531400829   -0.42538140576428    1.94516361613143
H        -0.55868574282959   -2.00077047551282    0.99819854874786
H         0.87370189215211    3.14108128467730    1.12876918190584
H         1.99551630209814   -0.10779417032948   -2.11810793733912
H         3.29451277286795    1.97211838543934   -1.95704612150551
H         5.41115304256140    1.77504254440832   -2.99514805567725
H         5.46912997739772   -4.74518853175518   -3.00351403417109
