26
 energy: -46.154513270675 gnorm: 0.219416674301 xtb: 6.4.1 (79825abcba525fcdf90b791dcacef51065a7a4e7)
C         3.65387345214850   -0.11809212043993    1.04759104942548
C         2.48416020505807    0.09325818386816    0.06123378149957
C         1.31086144007428   -0.81924511131519    0.37923561956319
C         0.43236815735780   -1.76635324646513    0.55607592320837
C         2.00335108843129    1.49492358977655    0.20650527299947
C         1.44385412381089    2.55279532053151    0.27425226604066
C         2.93814100454643   -0.09930109818752   -1.45161881528803
N         3.81733848126173    1.01198601635723   -1.85507961938186
C         5.08901580449324    0.82510562140848   -2.30920063439017
N         5.63499441815155   -0.32142114910078   -2.52487231346888
C         4.91597158830122   -1.47320799503808   -2.27433124596437
C         3.65212912066388   -1.40538208717097   -1.81665822306747
S         2.58952975899353   -2.77776812502888   -1.67177599584038
N         3.50033473384110   -4.02122844181346   -2.28773116122341
C         4.75496401389914   -3.94750079209833   -2.58360894218537
C         5.62792302183440   -2.73901452368125   -2.62001231842372
O         6.80491587600889   -2.84334551479453   -2.94321017281234
H         4.28587483680343    0.74429189805586    0.79986131792777
H         4.24381859555521   -1.01866639557352    0.84461176812229
H         3.44214655799304   -0.08028216897523    2.12229194795967
H        -0.31417062674081   -2.36409464784242    1.02730483375919
H         0.89618276590747    3.44823636128135    0.47501987365825
H         2.02986041246210   -0.11517294463137   -2.07132295106508
H         3.41230404790700    1.94082049331461   -1.92501203796654
H         5.59525118895877    1.77024786284337   -2.57193497790686
H         5.23840912609684   -4.89181749634535   -2.87908685329058
