26
 energy: -46.151099651106 gnorm: 0.231181854007 xtb: 6.4.1 (79825abcba525fcdf90b791dcacef51065a7a4e7)
C         3.89438136790925   -0.19926181279092    0.72072048251632
C         2.58679867316231    0.02395243241305   -0.07060852408085
C         1.47963319456374   -0.88778712786693    0.43271345763943
C         0.44073712538452   -1.54050823977932    0.87394681343790
C         2.09293572785945    1.38937543674793    0.25903757502518
C         2.03846144077293    2.54309212677728    0.57948955193722
C         2.71739555289227   -0.15111262548717   -1.64674218785853
N         3.41826821885624    0.99104060116388   -2.25910759589143
C         4.77494854497326    0.89402335060059   -2.35031911881654
N         5.47484417324367   -0.18645213767515   -2.39332364181891
C         4.80197102395995   -1.37240080613507   -2.17619446672688
C         3.48410028971311   -1.45084005265913   -1.91460937434420
S         2.53155060903688   -2.90460396041930   -2.02761958975777
N         3.61586514150061   -4.12715825063799   -2.31879484486873
C         4.86255027052194   -3.89061499582364   -2.55732688725566
C         5.60590858822376   -2.62462616561508   -2.29557817136158
O         6.80850464521964   -2.65717420905073   -2.06458609054593
H         4.58884191110108    0.62417687933499    0.51054142545760
H         4.31160511346168   -1.17804917026972    0.45962750183282
H         3.74379092729868   -0.27390644215082    1.80376738532417
H        -0.45743824284464   -2.08573731553855    1.05471707956622
H         1.68528202380093    3.50559412636736    0.88101967032906
H         1.68300335143263   -0.22048987183905   -2.01345506672183
H         2.89171817407746    1.85895532687659   -2.22525493554500
H         5.40169707704166    1.75463217346014   -2.64210018453704
H         5.56435677330695   -4.71415156036719   -2.76230389129418
