26
 energy: -46.151224084897 gnorm: 0.216768592279 xtb: 6.4.1 (79825abcba525fcdf90b791dcacef51065a7a4e7)
C         3.78902224694603    0.04998205764576    0.77661305140393
C         2.49185989612715    0.04846938241520   -0.06193703906604
C         1.61641206313872   -1.10201818965667    0.40751677463948
C         0.49489713818310   -1.76646207168037    0.43500090702166
C         1.82048545176859    1.35399927459247    0.18664934614498
C         1.42587713236138    2.39211910196360    0.63754912795927
C         2.81583519980785   -0.09187636669547   -1.61346651635464
N         3.60926295039060    1.05285186057946   -2.09388047484456
C         4.95822213823459    0.85954008581291   -2.05848179196595
N         5.61180301054520   -0.24235890295311   -2.19182802694932
C         4.89864126607171   -1.42411228457065   -2.15665896166025
C         3.58892291935741   -1.39421477437645   -1.84826517387774
S         2.61313414943506   -2.83355183275110   -1.74979279995940
N         3.54309506575061   -4.02068747913922   -2.44336448026923
C         4.80567574468199   -3.91222962459308   -2.69075279008240
C         5.62882520249359   -2.69019460391065   -2.46080265982818
O         6.83666624249170   -2.69965645716475   -2.66497043587433
H         4.18675917527886   -0.96937924618447    0.86152377520787
H         3.72612206663427    0.45861452842290    1.79117352690270
H         4.65853424387087    0.55264482258009    0.33784326233028
H        -0.28832582008848   -2.46024147420415    0.63970452262805
H         0.95106519700894    3.34515838756458    0.72885058906680
H         1.87692256172960   -0.09979319787073   -2.18586423453039
H         3.16413003916521    1.93093722389510   -1.84388105110684
H         5.53874191656146    1.79580578013732   -1.98776549537681
H         5.27533690775740   -4.84389978959382   -3.04312971915293
