26
 energy: -46.152596883326 gnorm: 0.210395016585 xtb: 6.4.1 (79825abcba525fcdf90b791dcacef51065a7a4e7)
C         3.88944215018107    0.43138069203957    0.86335404015206
C         2.62433932498885    0.12959410862754    0.03014433853746
C         1.83484192945218   -1.10670121501429    0.42849745403448
C         0.72201684600372   -1.61863835821000    0.87523841621648
C         1.59736078835068    1.19831674725839    0.17189820012013
C         0.91672982590499    2.16839596798747    0.35191742321750
C         2.93365264431707   -0.06824656786885   -1.51810789997820
N         3.81843695339432    0.95731828886657   -2.09785037329563
C         5.15801408603555    0.72670705649458   -2.20112167499392
N         5.74623430202926   -0.41915006332725   -2.18933193214981
C         4.95772602828340   -1.54041902776276   -2.02383808915749
C         3.63760130053892   -1.39947605271971   -1.80300211809191
S         2.53427998405046   -2.74715129871184   -1.80071894165833
N         3.34272044647296   -3.90884428600462   -2.66792909468928
C         4.60362623075790   -3.81841098819911   -2.93063135385596
C         5.60062342259358   -2.81760744003554   -2.45291747849246
O         6.80772708060824   -3.00780130756814   -2.36700451040641
H         4.21605724872183    1.46966401678902    0.72266901173622
H         4.73467459625599   -0.23397346314592    0.65561418218044
H         3.63129126315332    0.33818421048507    1.92444425064101
H        -0.01323647994548   -2.35582480090927    1.10465143927594
H         0.19556508965134    2.95642403632497    0.38353071455821
H         1.93623915008828   -0.03991960526193   -1.98030122770682
H         3.44278545087465    1.90086905042105   -2.11442844628789
H         5.80508888870153    1.54703369868904   -2.55743033134374
H         4.96286276998793   -4.65630244560663   -3.54840754431538
