26
 energy: -46.152554458399 gnorm: 0.232371360955 xtb: 6.4.1 (79825abcba525fcdf90b791dcacef51065a7a4e7)
C         3.91032253355754   -0.33048924682637    0.78375377755966
C         2.66917672471339    0.08422615751131   -0.03683559286420
C         1.64290180433701   -0.96274303004787    0.36445327449028
C         0.76192597038093   -1.90245495217360    0.56659148206468
C         2.10575605492530    1.43662089806825    0.22874442372257
C         1.45710769593883    2.42992989538881    0.39995088556539
C         2.74035007672055   -0.03164362224495   -1.62220911494896
N         3.54096557705075    1.08549607837323   -2.15300248486535
C         4.88346177170000    0.91178222196626   -2.31375342686615
N         5.52498220413562   -0.20306189232169   -2.24516261989428
C         4.80082035209242   -1.37295719863691   -2.12978414198333
C         3.46600608228126   -1.33832503729838   -1.96115958693313
S         2.52116845173690   -2.78952966234542   -1.77450829372501
N         3.50026493151642   -3.98744829541032   -2.37577450964946
C         4.73608223683525   -3.78904015149692   -2.69273485240303
C         5.59098567258357   -2.62499239030516   -2.32131241099917
O         6.81093406171762   -2.73577245698060   -2.31093470651956
H         4.78401018011859    0.19424239560797    0.37653324614044
H         4.05285860916165   -1.41661989345736    0.76721367849611
H         3.74338548869957    0.03353977972806    1.80397668954695
H         0.16060161834856   -2.67848989408372    0.98234431932085
H         0.96012122273660    3.33585226465868    0.67266926297310
H         1.72718623870908    0.05402998031024   -2.04103824383752
H         3.10042528150353    1.96981358336624   -1.91724047235136
H         5.54546256028203    1.77448289739646   -2.50375332050727
H         5.25670950897064   -4.69497987729628   -3.04055789591806
