26
 energy: -46.148718257787 gnorm: 0.215429340002 xtb: 6.4.1 (79825abcba525fcdf90b791dcacef51065a7a4e7)
C         3.89645648270297   -0.33795563592527    0.65871791990777
C         2.56190684843681   -0.08956163610152   -0.07821925372169
C         1.65174111113620   -1.24076798686562    0.31768440966624
C         0.90917074990742   -1.87382454893161    1.18247653709368
C         1.98771178732995    1.21583952080807    0.34977021050860
C         1.73436384248610    2.36760150368814    0.56419563984271
C         2.75625209617004   -0.03659346209502   -1.65661240330121
N         3.52977261805712    1.12729699914445   -2.12325238614563
C         4.87791646310143    0.97031079683736   -2.25044083257352
N         5.49447257367177   -0.15575058954320   -2.35520186281957
C         4.77411686645036   -1.33364985627238   -2.35089275368698
C         3.43957794072541   -1.30508642229098   -2.17898368646431
S         2.40099954681704   -2.69081672337431   -2.36515067994441
N         3.48604013075294   -3.93919511677217   -2.22587274292783
C         4.77426247550647   -3.87857348900289   -2.16356491818398
C         5.54502928430361   -2.61171062909128   -2.32104099237100
O         6.76117911947630   -2.56500296036975   -2.18157068711002
H         4.64674497328240    0.41507679042577    0.38575032589395
H         4.27396110801447   -1.32918208845139    0.38443655235232
H         3.66812732576972   -0.25559325113456    1.72751263036132
H         0.43214728004291   -2.69640331904976    1.66464290696822
H         1.41918679076661    3.32328457950371    0.92391704917715
H         1.74921791644800    0.11138884354751   -2.07283609495646
H         3.21579752220094    2.07028831180288   -1.91381517660961
H         5.55928343522177    1.78147930919371   -2.56083115500579
H         5.29323155066234   -4.81039395706629   -1.88944428743929
