26
 energy: -46.150595751545 gnorm: 0.223638661543 xtb: 6.4.1 (79825abcba525fcdf90b791dcacef51065a7a4e7)
C         3.59439847711042   -0.43588179150038    0.96755221793456
C         2.43064237991239   -0.02009056413837    0.04095193049591
C         1.28275805058105   -0.98113911544409    0.30394369161959
C         0.42887750211785   -1.85259294425414    0.76382736011576
C         2.07023367878299    1.41348541485367    0.21959289933513
C         1.88241395182501    2.54717808556043    0.56045032076551
C         2.85276837922210   -0.11511111511604   -1.49028331182475
N         3.67658124859379    1.06857900110322   -1.79184250142525
C         4.97503060220337    0.97855862988983   -2.19710661840667
N         5.53073661986867   -0.12573003692181   -2.55886333538088
C         4.83080962606359   -1.30408063004893   -2.39162194058717
C         3.54214987192201   -1.38096937378502   -2.01108690785231
S         2.57908805350643   -2.83042501855879   -1.93937937712114
N         3.67549873923068   -4.06339070230906   -2.12059543911786
C         4.92625699069850   -3.88036161250225   -2.38361295156519
C         5.57676545449706   -2.56814705622904   -2.66424331657354
O         6.74835776644496   -2.50605631873928   -3.01662123554118
H         4.33299587803897    0.37420477408033    1.01985514891625
H         4.06096396644769   -1.36443478464961    0.62059995863566
H         3.25301587530281   -0.55244088324450    2.00249752670727
H        -0.29620332180538   -2.59800090824191    0.99897919815623
H         1.46788176668453    3.49140044347825    0.84093812889390
H         1.90276399648181   -0.09106553445202   -2.04361165272996
H         3.25654488029162    1.98417488407028   -1.66172505192060
H         5.59498037169912    1.87905361509214   -2.34997428370950
H         5.55154795338890   -4.76016322106590   -2.60206376065437
