26
 energy: -46.153808449512 gnorm: 0.221552700009 xtb: 6.4.1 (79825abcba525fcdf90b791dcacef51065a7a4e7)
C         3.65076900263151   -0.34123702183030    1.02013345528162
C         2.49102420170813    0.03063203660707    0.07013129193329
C         1.33344925996304   -0.94129713941303    0.23072829101390
C         0.47145050409185   -1.67936452866796    0.87279640379644
C         1.98289464216495    1.42324094000656    0.20938623563140
C         1.49560054339190    2.51469857472327    0.29873842306458
C         2.82435318348987   -0.14347970960990   -1.47598563524211
N         3.58082659887808    1.00768246029358   -1.99876811688958
C         4.92069185426809    0.88008134971854   -2.21508375555881
N         5.61823580767175   -0.19669258777320   -2.32963018337767
C         4.93367482656849   -1.39038065715741   -2.21621649114033
C         3.64353282294416   -1.38863095898861   -1.83294986757456
S         2.65783990940648   -2.82242641981615   -1.75426203561772
N         3.64094951161429   -3.97430890947070   -2.43383710117419
C         4.85477221594300   -3.80918793711182   -2.84181205983655
C         5.70298569607368   -2.60120143622116   -2.62938747161268
O         6.92635263634791   -2.63049791082470   -2.68568169115168
H         3.60188797939705   -1.40635845697847    1.28018909889614
H         3.51568772458316    0.21480802782965    1.95439083059753
H         4.59262924390901   -0.09893825078430    0.51473213822695
H        -0.33774763236017   -2.36358967452141    0.98986887649882
H         1.11726100022558    3.45890000895091    0.62647163004993
H         1.86862105953231   -0.26041099019988   -2.00717482845784
H         3.08816923550166    1.89591903689310   -1.99757182028142
H         5.50558300623555    1.80040633403069   -2.38684441906989
H         5.24299908952172   -4.75407337601966   -3.25319000315664
