26
 energy: -46.151590877367 gnorm: 0.228502447827 xtb: 6.4.1 (79825abcba525fcdf90b791dcacef51065a7a4e7)
C         3.83170206309855   -0.22297974857993    0.80777701906011
C         2.52590196869249   -0.03002370899563    0.00562193808434
C         1.62119370910606   -1.20503293426868    0.33919906743153
C         0.87025787981804   -2.16213577532141    0.80833261229830
C         1.88415579246471    1.27579622945759    0.32175996708955
C         1.64968087843934    2.44352588351915    0.18704516660405
C         2.77632909604512   -0.01085326249492   -1.56562577985910
N         3.68192841492596    1.08870237237206   -1.94191711059801
C         5.03305744132009    0.91271797786349   -1.89957035592298
N         5.63413420337720   -0.21675221329209   -2.04834661900675
C         4.80756158904679   -1.32100263566761   -2.10987967831325
C         3.47590176409191   -1.32896635173980   -1.91499140299220
S         2.42482374724722   -2.70619802351222   -2.09393168964046
N         3.38878829877836   -3.97967308299284   -2.54580959746334
C         4.67146136063076   -3.83431445055545   -2.57216752379662
C         5.49555148831525   -2.59552500058364   -2.47167945256865
O         6.71356730267726   -2.56128498569132   -2.59785034537012
H         4.43562000965575    0.69320438191391    0.82756876410501
H         4.52683484054669   -0.97945107106358    0.42723602986189
H         3.66553861857922   -0.37469532867733    1.88044285086901
H         0.33506003774787   -3.04869120425046    1.06181704854249
H         1.32468121675530    3.46123479952515    0.21369076290191
H         1.86376625378421    0.16675278447544   -2.15294504103781
H         3.29964768715368    2.01527557379170   -1.77759890105130
H         5.67050027304069    1.80896028764657   -1.80462922739318
H         5.25217005440339   -4.75945830479315   -2.71233411266579
