26
 energy: -46.155325494746 gnorm: 0.218481680595 xtb: 6.4.1 (79825abcba525fcdf90b791dcacef51065a7a4e7)
C         3.64851010604562   -0.07184428022913    1.02609150649761
C         2.51726383165787    0.10714775842461   -0.01026866975857
C         1.46523004534582   -0.95256640455203    0.27371769463472
C         0.53579577159066   -1.60558440788334    0.91383971243314
C         1.82319290766531    1.40409400594422    0.22025922567732
C         1.18151377493353    2.41012981978199    0.33365649472574
C         2.94511436702550   -0.06904822145194   -1.53270078222176
N         3.84189830446635    1.05038380478796   -1.86941786406162
C         5.16017628426884    0.81610917677387   -2.12548810411376
N         5.74172569240860   -0.32284226080733   -2.27950262636508
C         4.91448006580337   -1.42829413200784   -2.27520808388073
C         3.62139339626501   -1.39341266953917   -1.90362645247651
S         2.61055909532488   -2.80830624993822   -1.80442017625758
N         3.58930198222167   -4.11906490923066   -2.08572806444354
C         4.78196787601631   -3.95141411263757   -2.55104015134755
C         5.56798369539208   -2.69523461909267   -2.71841373470898
O         6.65454380268034   -2.70696090714025   -3.28401397069593
H         4.16428503067072    0.89178199294130    1.12560329380344
H         4.40837179946258   -0.78095673940231    0.67962417131522
H         3.27137032975517   -0.36112014046350    2.01367692672104
H        -0.12998339174992   -2.41787015451392    1.09714712213493
H         0.64468865837020    3.30094430947605    0.57928740797891
H         2.02003700253078    0.00118374344532   -2.12308888507581
H         3.48022167392780    1.91259841325024   -2.26622122683224
H         5.73252613852898    1.75998665024041   -2.13590058611226
H         5.33213613006379   -4.87680600018122   -2.78282703680122
