26
 energy: -46.149403064573 gnorm: 0.230867285965 xtb: 6.4.1 (79825abcba525fcdf90b791dcacef51065a7a4e7)
C         3.80168405907432   -0.26413098826485    0.85921374301242
C         2.54644280314091    0.03860477524687    0.01155865925529
C         1.46419108764807   -0.98559660335022    0.31182554592692
C         0.48045885472036   -1.65389193531890    0.84632439009327
C         1.85035041944268    1.34651576875929    0.15910984240166
C         1.16926757378807    2.33037981227883    0.22880065153650
C         2.90363628650972   -0.11275807222902   -1.53162076940228
N         3.75129135519608    1.00318438979504   -1.98646271129849
C         5.02919214227785    0.90973926158379   -2.45181309780327
N         5.66731030106228   -0.19424743355443   -2.63388218418504
C         4.97476947589677   -1.34280429692669   -2.30588533820778
C         3.69573940476471   -1.37538932030662   -1.88829338690615
S         2.63336354003894   -2.72773042190634   -1.61246232989919
N         3.45915236573643   -4.02082059592748   -2.24582687597430
C         4.70085167209396   -3.83571722017255   -2.54747838192449
C         5.63222543475312   -2.67473087294302   -2.45541691198490
O         6.84370656108275   -2.78022995351223   -2.60319180210269
H         4.50399389758624    0.50982611946233    0.52417158044859
H         4.17300262074115   -1.28563282090942    0.72164042256598
H         3.64370449542195   -0.11341731340702    1.93325645185532
H        -0.37277751976312   -2.27232776069275    1.00817755939440
H         0.72945885545775    3.27868618324575    0.45094817970983
H         1.98577237433992   -0.10016132034829   -2.13711720251306
H         3.37124458819878    1.90810132216938   -1.72499239693864
H         5.54267407318609    1.87972189314910   -2.57041941954510
H         5.18195607604304   -4.78684632253056   -2.82434007470898
