26
 energy: -46.153889336972 gnorm: 0.204795593972 xtb: 6.4.1 (79825abcba525fcdf90b791dcacef51065a7a4e7)
C         3.71327770788699   -0.30912438496504    0.94177316330370
C         2.51250460784526   -0.08004237012438   -0.00240060113123
C         1.37429454813773   -1.08520131435600    0.06505916791978
C         0.13549505110278   -1.40689077182748    0.31391351961469
C         1.90259773609410    1.24025204816242    0.31663451156199
C         1.48184635291465    2.34478119038789    0.51589004292932
C         2.87058377794091   -0.00981306212160   -1.55118974363610
N         3.78200236926256    1.09016609732408   -1.91186948885103
C         5.08255989559443    0.87836650714043   -2.26116083722797
N         5.58772010812981   -0.25900374546773   -2.59332438497276
C         4.86102672876115   -1.40467694364729   -2.33695112003606
C         3.59348059170239   -1.31726577290400   -1.89304931343359
S         2.74652773254621   -2.77215180011655   -1.44636238859042
N         3.75628827848323   -4.04701018124116   -1.77844636909271
C         4.94126005261628   -3.92739807239894   -2.27705331753207
C         5.55287789151562   -2.65708866801109   -2.76291267865575
O         6.53927969085878   -2.63732793300161   -3.48904970878972
H         4.27510963091828    0.60963713765189    1.15325393474533
H         4.33362800507992   -1.10425340956312    0.51374835882519
H         3.33875828366682   -0.61236873200688    1.92616026458582
H        -0.66724733078939   -2.10476034582406    0.24142651567119
H         1.11718703933971    3.30882409610347    0.79822153709287
H         1.89577097184731    0.12397211861170   -2.04220937907067
H         3.38874647087006    2.01747442853354   -1.78100322373714
H         5.70306430123488    1.78855350391556   -2.33279440189298
H         5.49683532851065   -4.86747121420820   -2.41973829946656
