26
 energy: -46.153867900172 gnorm: 0.225004656769 xtb: 6.4.1 (79825abcba525fcdf90b791dcacef51065a7a4e7)
C         3.67484255149701   -0.28165693019665    0.85120743382268
C         2.44515477308727    0.07684136641351   -0.01201074535463
C         1.33029213597737   -0.93521356375448    0.19594006255712
C         0.25040965714242   -1.66588943648511    0.19777216521145
C         1.95852576846471    1.47092998961953    0.17944740401400
C         1.67961803987294    2.59751314420730    0.47901370226858
C         2.79498034761865   -0.12499815433367   -1.55109602977762
N         3.59941539735306    1.02547460831666   -1.99833707769366
C         4.93566119417669    0.91867973811290   -2.24603734521492
N         5.54368707380324   -0.21265741661318   -2.34356339650963
C         4.83527229293487   -1.39760683981558   -2.32304594167203
C         3.59173318961674   -1.40868618825498   -1.80840966040572
S         2.71308040262844   -2.90223352487485   -1.63280401362096
N         3.82368805152327   -4.13266804013361   -1.72079027064367
C         4.99941925144820   -3.93635282620495   -2.21696618846212
C         5.58712077561969   -2.64113168658128   -2.66510769949875
O         6.66512132329077   -2.54334757611852   -3.23869909055533
H         4.60667512887318   -0.02525836458179    0.33115956893925
H         3.62507467797102   -1.35436859558964    1.06819298651475
H         3.60132919234650    0.29192014948360    1.78225255398944
H        -0.56470746621632   -2.31260265030144    0.43018928116735
H         1.49305208229355    3.58573814935152    0.84049769868128
H         1.90150983951228   -0.16709472946298   -2.19078118122162
H         3.19607494262083    1.94402736087422   -1.83942124383547
H         5.54332007098952    1.83899570232304   -2.29468579792240
H         5.61799501018360   -4.83139311634664   -2.38734024449725
