26
 energy: -46.153500720123 gnorm: 0.215784277438 xtb: 6.4.1 (79825abcba525fcdf90b791dcacef51065a7a4e7)
C         3.80824275854942   -0.44345399649790    0.79697448800821
C         2.52945401382407   -0.03972364828607    0.03048909977472
C         1.42723769454074   -1.07397439723858    0.19130583346351
C         0.28510377337953   -1.50490507371676    0.64941677688261
C         1.98784049970658    1.31108207249290    0.34501387486739
C         1.42357034380872    2.33526286720825    0.60839952367493
C         2.86175765467155   -0.04087690474787   -1.52561938214620
N         3.71687522912092    1.09393031300569   -1.91512469791715
C         5.05073860733855    0.93285866536560   -2.14572783932132
N         5.64137101807528   -0.18531783916569   -2.39060580844976
C         4.85029928850353   -1.31278067509432   -2.29359721007715
C         3.55138181163108   -1.34448448398984   -1.94263995408170
S         2.64158637878020   -2.82009630933164   -1.77413563844279
N         3.60074627480781   -4.08150162273279   -2.26812850749315
C         4.76933778930592   -3.80527442733493   -2.74264559200656
C         5.58673328653955   -2.56143330296028   -2.65020344729088
O         6.80697270887157   -2.58549520459770   -2.75551616276519
H         4.70725248229359    0.00394029515753    0.35411804847928
H         3.88040946701340   -1.53663578731345    0.79304665996611
H         3.73060182207882   -0.06609003219967    1.82303892095522
H        -0.51475663149606   -2.19047239261014    0.81340585362813
H         0.80908870780060    3.09845420564575    1.03503462175939
H         1.89556123992903    0.11463686897434   -2.02715574022766
H         3.44557379389935    1.96495518660868   -1.46859572259585
H         5.60266374867819    1.88850920354760   -2.17233883827621
H         5.35082739300288   -4.65080313318033   -3.14228475400756
