26
 energy: -46.149127430050 gnorm: 0.226915711019 xtb: 6.4.1 (79825abcba525fcdf90b791dcacef51065a7a4e7)
C         3.72132168846679   -0.52781434994276    0.84639072317523
C         2.50448874809814   -0.05494603767957    0.02085342058274
C         1.25778663758258   -0.87365964442177    0.31387098232226
C         0.30794740199780   -1.74452677876615    0.51244744433521
C         2.23467259843537    1.39139970747806    0.24939302302319
C         2.05709655829296    2.57648657018600    0.22191609005983
C         2.70695312666070   -0.11723026721155   -1.55617843997968
N         3.44132446075559    0.99071793265973   -2.19169193631463
C         4.79716710393366    1.00352844546546   -2.33254650982500
N         5.46724131663475   -0.09648548007499   -2.32252298956608
C         4.81028821038153   -1.30421165656624   -2.19529210011233
C         3.51826660677203   -1.38874850944627   -1.82800957681226
S         2.63784077367033   -2.89141530857724   -1.84787285710202
N         3.74021472048248   -4.13234112731490   -1.85377387124729
C         4.93083514603825   -3.85112283329196   -2.26658536702434
C         5.60851070649452   -2.53721444370537   -2.46209053952647
O         6.77783817522283   -2.41668325561395   -2.80676357268027
H         4.60520491561948    0.11300620822320    0.73413472556936
H         3.96808606036385   -1.55013164796068    0.53939793043935
H         3.50439771216814   -0.51386004774980    1.92062959741868
H        -0.58859351117955   -2.27291016920635    0.74417358036727
H         2.04995052039349    3.63609203553434    0.36066548948030
H         1.71722891835217   -0.16120929925010   -2.03343162461934
H         2.91009124660243    1.85632568804791   -2.20552698025571
H         5.34443619188578    1.96067794937531   -2.38694161235821
H         5.65746154796901   -4.67588585228655   -2.19920252736662
