26
 energy: -46.153220937469 gnorm: 0.222972309149 xtb: 6.4.1 (79825abcba525fcdf90b791dcacef51065a7a4e7)
C         3.73718676207644   -0.05005429862807    0.86170963511232
C         2.46835292406654    0.01904580419760   -0.01640457731790
C         1.50958771077871   -1.08678013338860    0.39388275588402
C         0.92592926885221   -2.14106468578274    0.89174184294689
C         1.79464672056301    1.33790488155492    0.13747143396380
C         1.58052061617325    2.51717799490213    0.12390475353787
C         2.82530441275248   -0.06574036718190   -1.56472547099227
N         3.70617143046457    1.07035317672517   -1.88735938480087
C         5.01877855318600    0.92183957936277   -2.22398922691500
N         5.62392839362411   -0.20415670509453   -2.38228198827490
C         4.86653898825028   -1.35280942406487   -2.26680116808939
C         3.55675129258102   -1.35406662459436   -1.95725736678362
S         2.49784839429490   -2.73672919903970   -1.93444145661939
N         3.43353661209613   -4.07009374137098   -2.25348155610362
C         4.70173504463729   -3.90760218756952   -2.43332395889251
C         5.53004671508584   -2.66941297651319   -2.50121323988427
O         6.75329782343414   -2.72901740238610   -2.47368074848116
H         4.60661441744843    0.42941888419794    0.39405273092382
H         3.97785155060813   -1.09796656526604    1.07201948123084
H         3.47493609747483    0.50798717056903    1.76783005056936
H         0.29657860638965   -2.95798514094439    1.16235289049251
H         1.24337144782061    3.53023962641980    0.07804866315170
H         1.89023135635322    0.03613382599891   -2.13439098196273
H         3.43465144050086    2.03599032057656   -1.72767618175021
H         5.63784101851385    1.83389442272625   -2.28327737775667
H         5.24406904889584   -4.82451820142645   -2.71242835568746
