26
 energy: -46.156312650040 gnorm: 0.219866469795 xtb: 6.4.1 (79825abcba525fcdf90b791dcacef51065a7a4e7)
C         3.87528118333638   -0.47891757691073    0.68053102272874
C         2.55754314280706   -0.09364319601599   -0.02723222230483
C         1.38770512505554   -0.96575204635973    0.39858770592391
C         0.23934546720888   -1.57780368884637    0.48043913642335
C         2.12678276794675    1.27130987157932    0.38300644407941
C         1.82282559689560    2.39843313503726    0.65489300678258
C         2.70833379238980   -0.15917520921422   -1.60990982441383
N         3.44993426749706    1.00416770278418   -2.12700739319788
C         4.80441136223647    0.97814011130988   -2.27875641571487
N         5.51573538583291   -0.09506742835409   -2.31582761498200
C         4.86027425081552   -1.30639157694317   -2.21865708188172
C         3.54206675983108   -1.39591806718567   -1.96238227559261
S         2.53876585893844   -2.81954905239812   -1.97700531699695
N         3.68458118905517   -4.01824385705666   -2.05047657316090
C         4.93980687398923   -3.79524043401757   -2.25480967011295
C         5.69227629058461   -2.52330659633986   -2.45429850069558
O         6.90442841342214   -2.56189640298046   -2.62707596894300
H         4.43874714387130   -1.30997357533492    0.23741253065237
H         3.68414672945194   -0.62529215762375    1.74932098915653
H         4.56728739429867    0.36544279880554    0.58345961133154
H        -0.53999805563071   -2.12845211022779    0.95591954701237
H         1.51988736774582    3.37107910695685    0.97777758746443
H         1.72808887681229   -0.20382006996164   -2.10628217764699
H         2.98226948022903    1.90380773355944   -2.06688761465066
H         5.27420221071639    1.96152100979111   -2.45441525414227
H         5.49211950952737   -4.72785743009540   -2.44958314010742
