26
 energy: -46.154205711593 gnorm: 0.218499077179 xtb: 6.4.1 (79825abcba525fcdf90b791dcacef51065a7a4e7)
C         3.71224775006040   -0.32354478790977    0.95032781022067
C         2.46569956475367    0.02721595345165    0.10837578398868
C         1.36355473948188   -0.95742234517981    0.46359634036557
C         0.15922634186557   -1.45699004306966    0.47147018932295
C         1.99126692057323    1.42445706778495    0.30731811689951
C         1.66133596506147    2.56919608973513    0.43936825431253
C         2.76468659697351   -0.18557907930925   -1.43992188142489
N         3.62099763103770    0.93621460244762   -1.86305097946722
C         4.96178781460951    0.86772213043862   -2.09949095510669
N         5.58990806486045   -0.23949835675039   -2.29610811072469
C         4.84713158014500   -1.40236229443455   -2.24703511851375
C         3.56256137081424   -1.42938578967198   -1.84639581923989
S         2.74191562467234   -2.95224581973875   -1.64393695669820
N         3.78621024425725   -4.12777322961999   -2.17567380983025
C         4.95063707114034   -3.90979659018083   -2.68916227811629
C         5.58333814185466   -2.56612019215807   -2.82349316378671
O         6.66092931263984   -2.38357280046492   -3.37678125538226
H         4.45446963083546    0.48429643532772    0.98196949781642
H         4.21038722374786   -1.17722994658429    0.47773009240758
H         3.44520242851846   -0.44308204573740    2.00656525288747
H        -0.68840051204634   -2.02210768614428    0.78586229492514
H         1.25250988536974    3.54336784932928    0.60035527999984
H         1.79795739925543   -0.12694292801329   -1.96074355876788
H         3.24743207376788    1.87886852127950   -1.92245878975920
H         5.56638489860064    1.78577848213395   -2.20064607977631
H         5.59263748022587   -4.75658803171468   -2.97819538699362
