26
 energy: -46.147404146921 gnorm: 0.227547073089 xtb: 6.4.1 (79825abcba525fcdf90b791dcacef51065a7a4e7)
C         3.70578126308182   -0.19834787416693    0.78160620223063
C         2.45441507568748    0.04553691665207   -0.09040386725239
C         1.27369039999107   -0.86423862569236    0.20727905561243
C         0.12417474447894   -1.47892278393369    0.23580796751494
C         2.06010995280084    1.45793340240067    0.16767897015617
C         1.89077319274013    2.57316800127889    0.57301334003516
C         2.71742974231533   -0.17314389770536   -1.64439956302455
N         3.54312086210312    0.89168410250006   -2.24030508471360
C         4.88873211750701    0.80330784886992   -2.04072204362771
N         5.57942897842721   -0.28351272791660   -2.01089845665318
C         4.84326741515350   -1.44642530383827   -2.12079887966383
C         3.53767578787032   -1.45907593242478   -1.79425146169107
S         2.65607356365802   -2.95989445692083   -1.73201816634155
N         3.87227726508386   -4.08917780119754   -1.75899435637810
C         5.10059502344226   -3.86715916199053   -2.08917199170094
C         5.63042292752761   -2.59502718371047   -2.65907051609125
O         6.62019621171603   -2.49438656733409   -3.37382523188746
H         4.45585816396272    0.53079259594502    0.44958093451793
H         4.09328037175029   -1.22302707901648    0.76948794986053
H         3.51267443423903   -0.04696817805855    1.84979805470310
H        -0.72350901247375   -2.12381350411500    0.28292301653944
H         1.69696015348604    3.56830602179915    0.91095272367076
H         1.77289428684418   -0.09823370356166   -2.20252141035914
H         3.04367543664276    1.75226778278065   -2.44433184974610
H         5.43974044816957    1.75119016331461   -1.91224481244306
H         5.83474638891056   -4.68571732442250   -2.15036611832525
