26
 energy: -46.151297214318 gnorm: 0.235319914776 xtb: 6.4.1 (79825abcba525fcdf90b791dcacef51065a7a4e7)
C         4.07355572423615   -0.20178366033597    0.80171061868678
C         2.71405665095294    0.05358082595122    0.11443342615193
C         1.76094030894537   -1.07965084850121    0.45761362464586
C         0.95682222353062   -2.09840006116304    0.58243714905840
C         2.00892310146067    1.34032822011181    0.36744516407874
C         1.30754937459015    2.29358181871556    0.55744930922254
C         2.79900529992235   -0.03302879021307   -1.47212988904213
N         3.58067054238602    1.10410180662170   -1.98852251484074
C         4.90566664080661    0.93747376794879   -2.26226297128362
N         5.57697200639935   -0.16108869934080   -2.30276206335418
C         4.79718142089050   -1.29251503994262   -2.16793372343269
C         3.46398700981269   -1.31505649876795   -1.98504767670676
S         2.43710137146344   -2.70120137699854   -2.22517257863135
N         3.41548533278712   -3.98437524120678   -2.61426085721030
C         4.69308802541552   -3.79821110957780   -2.62644031234561
C         5.49884401136035   -2.60891352319717   -2.22625254846281
O         6.69050318766895   -2.76796143851508   -1.99107991402070
H         4.38522755363584   -1.25304318194834    0.75463571213973
H         4.00732742833376    0.05046722334714    1.86578448477214
H         4.83547198357144    0.46438133450084    0.38105908992067
H         0.30807833254008   -2.89958904149909    0.85428123586497
H         0.81822332484496    3.24197878061744    0.61374693786777
H         1.76386987736553    0.03637923951146   -1.83673371989722
H         3.12073588536164    2.00966376944858   -1.99824709407724
H         5.44539202087371    1.85048348327659   -2.56837934625710
H         5.13307870824080   -4.79268064530546   -2.80021877328044
