26
 energy: -46.147317272845 gnorm: 0.227288977023 xtb: 6.4.1 (79825abcba525fcdf90b791dcacef51065a7a4e7)
C         3.50896687080064   -0.01258521342027    1.12647754832750
C         2.42824784066576    0.00974189058965    0.02314325053648
C         1.35963959147951   -1.05571639504356    0.20560552159243
C         0.28349700843655   -1.78993214206868    0.25928176424047
C         1.78825294673952    1.35024789195311    0.12511055929674
C         1.34549681960098    2.38544614478924    0.53626832119768
C         2.98280479736282   -0.12711445693561   -1.46199565194447
N         3.83178838584962    1.02354935092966   -1.81685836931900
C         5.17556721538741    0.80270286587167   -1.87849186636327
N         5.78297823636843   -0.30427418861657   -2.13301930361710
C         4.97023967382858   -1.41545192963823   -2.23845961630849
C         3.71862968730531   -1.44154356811302   -1.74433977861521
S         2.72103489112357   -2.85379453445332   -1.53480807779653
N         3.72440879100474   -4.02273604425394   -2.15285062821722
C         4.89288306110327   -3.83732454880158   -2.66992365923980
C         5.58211651457150   -2.55334316703261   -2.98642130761461
O         6.47052837780968   -2.53080230588259   -3.82955253147958
H         3.57528150620157   -1.02503991095235    1.54485514828450
H         3.31658786123871    0.70615112960917    1.93064063643021
H         4.52482524679788    0.18091339358038    0.76339361397351
H        -0.57734513428448   -2.40840945586389    0.37377299130485
H         0.91104679768921    3.34343277813283    0.72489758521615
H         2.05819354920725   -0.08861928034706   -2.05602505513099
H         3.56692044928230    1.98728049078758   -1.63590481375434
H         5.87293442391353    1.65838255360593   -1.86907330919136
H         5.32267486460690   -4.80713312967518   -2.96574579119342
