26
 energy: -46.149432325643 gnorm: 0.225871176897 xtb: 6.4.1 (79825abcba525fcdf90b791dcacef51065a7a4e7)
C         3.78246551325432   -0.21732714922700    0.73014442460711
C         2.46736237778788    0.05750075764024   -0.03193960750397
C         1.42196925273760   -0.98021570007814    0.34318064951389
C         0.74672384956555   -2.01447551832039    0.76077739529034
C         1.83845848772281    1.37734971396008    0.24988615489309
C         1.33732819220760    2.37968526389739    0.67522247334747
C         2.83719213544129   -0.01255606034444   -1.57797280422788
N         3.75664439123496    1.09896894447868   -1.87771870541825
C         5.05226980921164    0.89723953876039   -2.25051010249696
N         5.57837360004122   -0.23245534073728   -2.57629353312569
C         4.88873562473350   -1.38963788899431   -2.27346417241263
C         3.60164206443336   -1.30384138616462   -1.88954766389253
S         2.57882335300757   -2.70598578651763   -1.74331263018416
N         3.46550667339519   -3.94278376841462   -2.40609726499620
C         4.72566455006297   -3.82115944855615   -2.65963959251544
C         5.64426380028282   -2.65812494430466   -2.49426769737801
O         6.84422006522278   -2.84238050557366   -2.65800175529222
H         4.59817779173520    0.30786166136160    0.21702440336262
H         4.01366608253439   -1.28207196789988    0.84475095549666
H         3.60990359201566    0.10110236515521    1.76458385130134
H        -0.00075338290322   -2.70714304175057    1.07408414025048
H         0.73871803831913    3.25162591937775    0.82836157824240
H         1.94393909990761   -0.01062109512995   -2.21934168386462
H         3.52865168543781    1.95150087694539   -1.37484142543706
H         5.50636247978400    1.88673120533946   -2.43300270204272
H         5.23989215886900   -4.68410073232101   -3.11092965645430
