26
 energy: -46.146768197567 gnorm: 0.230461168762 xtb: 6.4.1 (79825abcba525fcdf90b791dcacef51065a7a4e7)
C         3.75688039530418   -0.12072283621018    0.86604121864401
C         2.46381852032467    0.01610403844907    0.03233378218391
C         1.33519874877926   -0.91739733170056    0.43879414267384
C         0.30162942088857   -1.68903097836163    0.62945802386933
C         1.85354981463355    1.35829120256868    0.23982558773444
C         1.23980003517018    2.38785847988558    0.24446652848834
C         2.90529182884586   -0.19178363221436   -1.48219078626881
N         3.71843601071668    1.00606237445081   -1.75548434661183
C         5.06505840779076    0.85243074236775   -1.90149407055619
N         5.71597892150765   -0.21356403382289   -2.21627682219018
C         5.01426132949540   -1.40054799867594   -2.14529033236326
C         3.71592279680013   -1.45431466989068   -1.79487780617015
S         2.67315932020672   -2.84463953859196   -1.68001793213328
N         3.62693826364865   -4.06308244949242   -2.28073635894426
C         4.83181340260013   -3.83781079802878   -2.68644886559461
C         5.65077469766162   -2.59476242267089   -2.77563869896060
O         6.73591870813977   -2.64392662864850   -3.34194192641955
H         4.01565188420412   -1.14104844390473    1.17664535454745
H         3.68588587319980    0.58076162748299    1.70458114856108
H         4.58834135342748    0.22516654490313    0.24132279425073
H        -0.63563235871992   -2.18568339967528    0.73692127290283
H         0.71118339144424    3.30059974614701    0.41632120883588
H         2.07118317317716   -0.17692980009902   -2.19864097895023
H         3.22935211137909    1.86801606649277   -1.53297660255994
H         5.67484876289350    1.77235401323299   -1.87925991008539
H         5.23217264825273   -4.71211875403264   -3.22315966671962
