26
 energy: -46.152259739705 gnorm: 0.223068579114 xtb: 6.4.1 (79825abcba525fcdf90b791dcacef51065a7a4e7)
C         3.67900994293478   -0.50263974912413    0.78209674762278
C         2.42397889920242   -0.09728526391964   -0.02188304841668
C         1.19414839213088   -0.92343362900113    0.31784216419993
C        -0.01895330166763   -1.25915156030390    0.65801051438107
C         2.13252879906948    1.33541856144208    0.25983260581826
C         1.93787408514343    2.44078828757024    0.68053014069308
C         2.76680185700284   -0.14785577323298   -1.57488519866120
N         3.52950400524966    1.02863811208276   -2.02751688525930
C         4.83713014059337    0.92203264050030   -2.39773648833673
N         5.48785563799410   -0.16487315324883   -2.63080875104704
C         4.81727498697639   -1.34933293015186   -2.39895917316298
C         3.59287063611947   -1.41051079292259   -1.84357282054291
S         2.71237342733904   -2.90921801745042   -1.73333206175544
N         3.77506578430822   -4.14370243962458   -2.05253919253675
C         4.99553970196575   -3.83592779875597   -2.34027560203619
C         5.70258539589077   -2.54093942365321   -2.55687012999598
O         6.89462793414329   -2.50152035432905   -2.83639600270348
H         4.53297608146375   -0.01008304100745    0.29977767787178
H         3.89489466114909   -1.57623100227943    0.74945481617917
H         3.64428191506767   -0.22273378491595    1.84119377264900
H        -0.95376759934644   -1.64695799430387    0.99327163499017
H         1.66187686172640    3.43174890414691    0.97016576171676
H         1.89559196655652   -0.26287818615216   -2.23596154398307
H         3.06477892686732    1.89744180492470   -1.78076262237933
H         5.32777448734274    1.88904876031535   -2.60448610749238
H         5.71694218460803   -4.65655993588909   -2.47775929600651
