26
 energy: -46.153055567976 gnorm: 0.225433706776 xtb: 6.4.1 (79825abcba525fcdf90b791dcacef51065a7a4e7)
C         3.80270724743022   -0.54374456515727    0.80589561526517
C         2.55801815970526   -0.04533199985566    0.03899752866634
C         1.34047272771934   -0.90434689854800    0.33915407479824
C         0.25763742075688   -1.62812441191947    0.27873412495998
C         2.17751743052919    1.34970485659197    0.39401650650666
C         1.90160764194645    2.46644974289029    0.73087514907081
C         2.76684077354639   -0.11323776658798   -1.53697282366999
N         3.53603249433248    1.06894494171898   -1.96301979046241
C         4.82766448559986    0.96421140601324   -2.38614043714313
N         5.50692741615632   -0.12992186329496   -2.41073354782847
C         4.76898320771605   -1.29069589705412   -2.29065195572114
C         3.45239271479617   -1.39203983671837   -2.03049502319250
S         2.61064819003897   -2.89472906903663   -1.77176171885759
N         3.71873755886910   -4.09491973387346   -2.06644857991564
C         4.93792988920771   -3.82379657898511   -2.39376548404599
C         5.60472812878412   -2.49949903072631   -2.55325783966243
O         6.81223728304626   -2.40000324661916   -2.73402351697361
H         3.66380473634377   -1.62559058060255    0.92762175514136
H         3.87300896334427   -0.09473038066581    1.80274756864943
H         4.77512772803482   -0.36563105678250    0.33270022463151
H        -0.52849411390837   -2.32386286438462    0.09267811277330
H         1.62486238392754    3.43149169189773    1.09717052014566
H         1.76066947284438   -0.01101009889270   -1.96874543153532
H         2.99373495020842    1.92773639743613   -1.97123752684746
H         5.28737893778633    1.93793385129181   -2.62929610662350
H         5.57982373356044   -4.71500524790320   -2.47426276636184
