26
 energy: -46.153971549752 gnorm: 0.215475692076 xtb: 6.4.1 (79825abcba525fcdf90b791dcacef51065a7a4e7)
C         3.83302524535548   -0.27291678045813    0.75565572564983
C         2.49818721048615   -0.03566062132755    0.01557760843205
C         1.34242935008076   -0.92508082304658    0.44403168418338
C         0.25066275265689   -1.33834855405474    1.02480034755540
C         2.05069516026276    1.35468020068965    0.30480135579511
C         1.81187633534409    2.46513273586420    0.68765881766733
C         2.72580646086917   -0.19994868553744   -1.55065976980235
N         3.42781793537455    0.93701844708548   -2.17131547474247
C         4.77844193509194    0.89290758499427   -2.35071011402475
N         5.49543828687193   -0.17680455599412   -2.37832756572690
C         4.86512276680812   -1.39461416923926   -2.21702137793614
C         3.54662794009218   -1.43124694531959   -1.94945425517189
S         2.59776767831383   -2.88401569255980   -2.10004930201185
N         3.73325492534331   -4.08262072439383   -2.27085537446968
C         5.00294331224274   -3.94195923699044   -2.45841816742118
C         5.68382712708897   -2.61537137580466   -2.47800304182627
O         6.90483031877387   -2.52284829596995   -2.51328299979790
H         4.68087502333929    0.28828138288472    0.34248586661486
H         4.08458870914612   -1.33312228146590    0.64185762912582
H         3.69956015383936   -0.07054651362288    1.82452112368589
H        -0.61410290786497   -1.93534448415002    1.20493317942626
H         1.64120508651510    3.46742381869059    1.01682459886709
H         1.76276577547173   -0.20638282638105   -2.08147989054286
H         2.95458379887018    1.83558342674559   -2.15378404687947
H         5.26215453228974    1.85981695228942   -2.57365821409827
H         5.68009045858895   -4.80995302226194   -2.42980104259954
