26
 energy: -46.148872821051 gnorm: 0.224320212195 xtb: 6.4.1 (79825abcba525fcdf90b791dcacef51065a7a4e7)
C         3.72211983597980   -0.06925932570091    0.94156185577400
C         2.47239477708879    0.07123926531969    0.04476415008210
C         1.51090221385970   -1.07558508721070    0.31074045608936
C         0.97017545856756   -2.06178336717628    0.97033449951108
C         1.84597974954593    1.37145503573480    0.41081098830072
C         1.37093952424552    2.46222794399306    0.26496737555339
C         2.89329472754678   -0.02676666837567   -1.48662041742314
N         3.73491216577906    1.06284457218475   -2.01117289369613
C         5.08146683858822    0.87200553236455   -2.10436285755433
N         5.63794026628641   -0.28891861350690   -2.14587205417631
C         4.82061720302166   -1.40168622273751   -2.13543829639609
C         3.49001504037228   -1.36476312033676   -1.93669898093316
S         2.45216113145356   -2.75752369695467   -2.06565220256252
N         3.47035055306445   -3.99151284896963   -2.50805598021442
C         4.74645739284878   -3.85436715392800   -2.64882690632303
C         5.59039676995739   -2.64037194934739   -2.45439522439595
O         6.77768272362567   -2.73323287923878   -2.74141945173614
H         4.30364517217570   -0.91981838431376    0.56356776243358
H         3.57646267229392   -0.31071490657031    2.00021811689463
H         4.32522236273028    0.84410176143328    0.88430135821961
H         0.30102760654031   -2.85233341039421    1.22320484644696
H         0.86287859085179    3.36824311203365    0.51611835311333
H         1.92526055260405    0.19036993700022   -1.96098346395336
H         3.41783982219316    2.02751260225661   -1.98755846983611
H         5.75200295191186    1.74539479010826   -2.18291209158845
H         5.33375120794359   -4.71009816197742   -3.01702635179051
