26
 energy: -46.151513003858 gnorm: 0.221357552844 xtb: 6.4.1 (79825abcba525fcdf90b791dcacef51065a7a4e7)
C         3.79284665039772   -0.00070388867376    0.93418561929113
C         2.57784722388615    0.09258725428760   -0.01495708454432
C         1.55789107573013   -0.99319262235306    0.28701806293634
C         0.36244340566335   -1.48442207600243    0.45916708313263
C         1.89188217541765    1.38776892110267    0.24753778374871
C         1.26148997081978    2.38585590390443    0.45525674616391
C         2.86926456180762   -0.11555461951724   -1.56532915756486
N         3.71023150491558    0.97227587591410   -2.09459970352731
C         5.04906986718406    0.77727787533350   -2.26133609879628
N         5.67752228665659   -0.32635186621710   -2.47623030193687
C         4.91673667145534   -1.45723980080141   -2.25560541723974
C         3.63564360247237   -1.41288035463255   -1.84548891335305
S         2.61140732271700   -2.78703219584345   -1.53533011461646
N         3.55622899510982   -4.01927372071519   -2.12189031005673
C         4.73082542017214   -3.89027537113832   -2.64223320205379
C         5.63471805845673   -2.70424069685026   -2.65325844564715
O         6.83033168822430   -2.86294886566327   -2.86767336860294
H         4.70947648260006    0.46384974827970    0.54885247488675
H         3.91841799072466   -1.07398389191207    1.11466211956100
H         3.54712067403664    0.54259467258768    1.85379712368968
H        -0.37273519841280   -2.24044422769742    0.61605738494743
H         0.81564445387236    3.34780665768539    0.58919231648094
H         1.86238142634511   -0.05711288887675   -2.00354107865977
H         3.39560237323854    1.92330186524626   -1.92656695276817
H         5.65500453187990    1.69997084125026   -2.25248532628307
H         5.13007403479892   -4.83122314563395   -3.05208469092993
