26
 energy: -46.150681236705 gnorm: 0.215171869883 xtb: 6.4.1 (79825abcba525fcdf90b791dcacef51065a7a4e7)
C         3.83196932239733    0.13128600167757    0.87912884541672
C         2.61436725325213    0.12311993882436   -0.07122752267605
C         1.65784344482515   -1.02531081522396    0.20551509839259
C         0.97058044152069   -1.85732418035246    0.93726650180042
C         1.67941757038107    1.26043434858277    0.15088095318009
C         0.85470662086051    2.11638274271178    0.30555260078275
C         2.97868902502225    0.03464391327971   -1.61762407627855
N         3.93662203892182    1.08711061059285   -1.99894556205994
C         5.24301144056796    0.86754233510359   -2.32058184551161
N         5.73938823500414   -0.32078866855843   -2.29588248968441
C         4.93727658230112   -1.42754971661392   -2.10075567771614
C         3.60996999664914   -1.33328618183513   -1.89892812094546
S         2.45055650026697   -2.63301665455379   -1.90249855112590
N         3.32117712131960   -3.97666962336328   -2.34042144490091
C         4.61045802161616   -3.97002603971565   -2.40959282525910
C         5.50396705451376   -2.77614789143907   -2.39871758181103
O         6.69784728530640   -2.97009238049841   -2.59285547852567
H         4.24454253577186    1.14654988777839    0.81976092337083
H         4.57895582073703   -0.61687144288472    0.59182848076658
H         3.49403456302323   -0.04219829530311    1.90720627269775
H         0.42172768983641   -2.76536647467505    1.04162880007374
H         0.13041078279474    2.88423374942970    0.47248547256008
H         2.02682306565787    0.19701956484081   -2.14378385377297
H         3.63419622846220    2.05554165669322   -2.04749307978937
H         5.88108860869710    1.72990775648968   -2.58092942351881
H         5.24686974700893   -4.86606539040326   -2.47926354979752
