26
 energy: -46.151826193739 gnorm: 0.214932131279 xtb: 6.4.1 (79825abcba525fcdf90b791dcacef51065a7a4e7)
C         3.86240947782456   -0.02435849092044    0.73565827979921
C         2.55074738176698    0.06667660431117   -0.07493031899097
C         1.50758187516213   -0.93532560140751    0.39220431246984
C         0.42638148513361   -1.66065760515425    0.46246087207795
C         1.89342414560163    1.34071750941112    0.32718046880546
C         1.44898777433927    2.39000360508320    0.69892517122961
C         2.91484898311126   -0.03279413647996   -1.62071046338403
N         3.77257416068208    1.10433454612250   -1.99750453005920
C         4.98171292064360    0.81538626257820   -2.55679492773200
N         5.56076337725924   -0.33305751007068   -2.62685226977481
C         4.88906695588739   -1.49429635344324   -2.30016300454783
C         3.59851756003240   -1.36673731307769   -1.94019952153199
S         2.48130340104727   -2.69939946996729   -1.84326748646448
N         3.47495479354887   -4.01537942879894   -2.03304021366772
C         4.75117230219630   -3.99486565958451   -2.22777623226014
C         5.61610962588995   -2.79362861860089   -2.40870356869762
O         6.81362383536587   -2.88302740070509   -2.65082248703313
H         3.60352376953753    0.16624535001144    1.78501538423012
H         4.51036554878162    0.78611595147104    0.38415578771263
H         4.37888913611047   -0.99084899307507    0.71604270409047
H        -0.18338636794778   -2.47921245804247    0.77039390809849
H         1.13092520555079    3.34840293844703    1.04874388695919
H         1.94399414739054    0.01240430839162   -2.13515847755651
H         3.50104613878946    1.98826989642595   -1.57725727531112
H         5.63236151352597    1.67197598105520   -2.80480283733407
H         5.24684357569997   -4.97802689488027   -2.24932585018476
