26
 energy: -46.155509734202 gnorm: 0.217637585193 xtb: 6.4.1 (79825abcba525fcdf90b791dcacef51065a7a4e7)
C         3.63785490027711   -0.16429309097225    1.03833526086112
C         2.50131922022797    0.06240616599236    0.01721196073642
C         1.44528483164527   -0.99318698266020    0.30169734604577
C         0.25654522707467   -1.41316882123994    0.63418823887988
C         1.80348490014057    1.36724832207088    0.18262459337031
C         1.20814657918853    2.38327202440837    0.40620283352448
C         2.90763732607657   -0.10223176869760   -1.51239602316922
N         3.78046716825861    0.99326399830008   -1.96932596465121
C         5.13217655902368    0.81666474534260   -1.96652823923103
N         5.71932320329010   -0.32078242584481   -2.11006679036029
C         4.90280939801194   -1.43283576264342   -2.16502305041862
C         3.59880081931515   -1.43228650678391   -1.83197038727823
S         2.70130673487852   -2.92045344248439   -1.71614621010780
N         3.72527376325510   -4.12137069875422   -2.23039254781763
C         4.93939098104167   -3.89658665442168   -2.60783866984626
C         5.57625072469476   -2.57138634089616   -2.85698822202587
O         6.62234065854458   -2.45728219399854   -3.48414855952040
H         3.93420754110014   -1.21477105258703    1.15310949290897
H         3.40283111346995    0.22054655644295    2.03680015886924
H         4.57425207729332    0.30574924235515    0.71668260878777
H        -0.46657343106917   -2.14489862865542    0.91408560035320
H         0.72828645491791    3.33364490503934    0.49889509594320
H         1.97267300593797    0.03452973170928   -2.07488760243533
H         3.44005720586490    1.92039477701154   -1.73220468174907
H         5.78749956979881    1.70072597993204   -2.05361982579521
H         5.52864655773222   -4.78573080531276   -2.88162865683433
