26
 energy: -46.149581476501 gnorm: 0.228877667270 xtb: 6.4.1 (79825abcba525fcdf90b791dcacef51065a7a4e7)
C         3.71394354255187   -0.34042521659135    0.94340751887592
C         2.51257125209016    0.04993106216743    0.05451760441672
C         1.29927919526151   -0.76524152459279    0.47145100444666
C         0.42688589914721   -1.69444570301381    0.74630785740421
C         2.06519684679411    1.45196088346888    0.28060528114583
C         1.76475272675239    2.56822503626200    0.59747556155102
C         2.81579748524706   -0.12275945176175   -1.49794252347394
N         3.55816904309182    1.03652166033189   -2.02299455570783
C         4.84424553148597    0.94769724411071   -2.46619978839383
N         5.42580740147623   -0.19441789919180   -2.59461062488443
C         4.82104943944043   -1.39922340096153   -2.29613264386092
C         3.53534645403573   -1.41529326053240   -1.89854952870109
S         2.60526626595334   -2.87833998798438   -2.06587199742181
N         3.66418742111625   -4.13403423661624   -2.30478195400637
C         4.93598204117507   -3.91142830908039   -2.29709397594554
C         5.66380800348767   -2.62029410547516   -2.46160396753021
O         6.88725382410875   -2.60516619765299   -2.52164947615014
H         4.62421324422408    0.13168828070750    0.55222996911082
H         3.87608602537992   -1.42385813705310    0.93104594888158
H         3.50556999023696   -0.09949979728672    1.99210923974274
H        -0.29797094763710   -2.40571869921409    1.07087664639814
H         1.55679526867272    3.59921673141447    0.78688523246379
H         1.85864268048761   -0.16526067021134   -2.03767124306394
H         3.12677733459944    1.95305533934612   -1.94853565939425
H         5.26292696024313    1.85699955369465   -2.93146597450201
H         5.65043956797443   -4.74772543890160   -2.35111218236149
