26
 energy: -46.154784554480 gnorm: 0.216842501369 xtb: 6.4.1 (79825abcba525fcdf90b791dcacef51065a7a4e7)
C         3.56067885369481   -0.52048288707996    0.99251624847651
C         2.44955486267598   -0.03869492293960    0.03382832282113
C         1.31002080533949   -1.04207997020921    0.10522878855876
C         0.20127472834737   -1.65195490816195    0.41950807820763
C         1.93114753675812    1.30261648687894    0.41994317856208
C         1.47073338350485    2.40924420642012    0.43057393866751
C         2.96069702201594   -0.01093399314249   -1.47277835186726
N         3.77018830468529    1.13776458868009   -1.91543319119786
C         5.08445995063776    0.94818572869246   -2.22375654962179
N         5.65599246020353   -0.18964005667475   -2.41826524686118
C         4.93369944233807   -1.35521386880599   -2.25668524486140
C         3.68102490131228   -1.33174197960030   -1.76513837476949
S         2.75754151687232   -2.78284746214965   -1.49123504896215
N         3.60581815454049   -3.99946917181026   -2.23649902310970
C         4.79564139629748   -3.82543715358094   -2.70671979252387
C         5.62488578898742   -2.58649406632764   -2.74129534482327
O         6.72346299774093   -2.54756710026327   -3.28191240452492
H         3.76795826482990   -1.59378838740880    0.89477930455137
H         3.30391254727730   -0.29619055446119    2.03368573678585
H         4.48752657993558    0.04098589279199    0.82836388261669
H        -0.47630491493914   -2.42374761359351    0.70567844454042
H         1.07169892604822    3.37382897473452    0.65951484068251
H         2.00919739254421    0.04181517904955   -2.02152670243598
H         3.38419765613272    1.98119893933158   -1.50154112818684
H         5.64666685828939    1.86646799251616   -2.46722838868791
H         5.24521095887327   -4.77371749343584   -3.04050418154208
