26
 energy: -46.151088627546 gnorm: 0.231571694653 xtb: 6.4.1 (79825abcba525fcdf90b791dcacef51065a7a4e7)
C         3.92557491384255   -0.12480417653021    0.85335322280251
C         2.60419212701219    0.05926180037587    0.07497931685007
C         1.57180408003925   -1.00940754257364    0.39519518132201
C         0.71494308543230   -1.80464351289872    0.97262548718553
C         1.88047973404433    1.34184973981279    0.29442333363251
C         1.51933475571277    2.45133830956989    0.56888376339005
C         2.80694148307241   -0.10622968176795   -1.49454478758398
N         3.60961598185402    0.99693024436141   -2.05085379735293
C         4.96051894231558    0.82517525259704   -2.11310182718491
N         5.61186045053647   -0.28258046753552   -2.02499920825745
C         4.82532973554931   -1.41697405985086   -2.05496961300337
C         3.48667010161838   -1.41363710425950   -1.91589406059196
S         2.46072962419070   -2.81482324640525   -2.04884232251360
N         3.50125124559954   -3.95757396824950   -2.65431368544125
C         4.76932925017944   -3.82206867427388   -2.85603267188462
C         5.58323650198026   -2.62733858557499   -2.48997707454327
O         6.80480440422890   -2.55593323948329   -2.54765840015791
H         4.55025439348414    0.77747738542474    0.84048895489091
H         4.45659569157261   -0.99416887981226    0.45025046436414
H         3.81457773365587   -0.46693543969337    1.88866270186090
H        -0.03105978781555   -2.49437564258961    1.29576776316120
H         0.98387768804124    3.36870748416340    0.68629642589779
H         1.84106570686171   -0.04301732348012   -2.01641349972370
H         3.21405942056278    1.92080894572585   -2.19802742290983
H         5.59814850414979    1.66163656099993   -2.44830099675356
H         5.21412354086127   -4.71826894742527   -3.31618864412629
