26
 energy: -46.148490785016 gnorm: 0.218944132058 xtb: 6.4.1 (79825abcba525fcdf90b791dcacef51065a7a4e7)
C         3.91505459004639   -0.11107358396122    0.73324271748721
C         2.61489260568711    0.02999847643427   -0.08863087867973
C         1.46538658665638   -0.77904695276644    0.48972789876548
C         0.35992910276180   -1.47021797453547    0.50655526355705
C         2.06414404800533    1.38419243772660    0.19382603835899
C         1.69520329975160    2.49515725715524    0.45142849860023
C         2.77559803115372   -0.12545355508507   -1.66403847671483
N         3.53826050937963    1.01156828872117   -2.20833174694946
C         4.89448386668415    0.87900762030334   -2.17092484158997
N         5.53727724622784   -0.23466075197109   -2.24635682841563
C         4.86596174270840   -1.44001177830784   -2.19304650764865
C         3.55404325820821   -1.42563761528397   -1.89300314269975
S         2.58344363150824   -2.85167903370463   -1.65239153141642
N         3.53635534076988   -4.11459888555225   -2.15453966570768
C         4.77182357251692   -3.95521102512877   -2.49408025566664
C         5.59263561426914   -2.71019837108491   -2.48835568677616
O         6.77827653877165   -2.86388671629861   -2.75535657325353
H         3.70080544645307   -0.36562085480299    1.77909402440024
H         4.50360979716292    0.81286392464335    0.71867766939853
H         4.59651911357224   -0.84452358201932    0.28726390182370
H        -0.42927807408500   -2.06076360419883    0.91285506738519
H         1.17092377052475    3.41952510356088    0.56430577531066
H         1.88126333427763   -0.25332969487942   -2.29099295325516
H         3.21653000003741    1.96712614019575   -2.08554902047612
H         5.46742002397227    1.82142931762701   -2.12420265769103
H         5.28217187158679   -4.88491196139749   -2.79066277466785
