26
 energy: -46.153118574697 gnorm: 0.215408117411 xtb: 6.4.1 (79825abcba525fcdf90b791dcacef51065a7a4e7)
C         3.90170889292251   -0.04311753950217    0.73803990366192
C         2.57315430403830    0.02678015599732   -0.04672485293802
C         1.61224791242677   -1.11938348237055    0.22417231204911
C         0.87465404440750   -1.94216055368218    0.91629221235242
C         1.77346597985296    1.23497117702215    0.29637890126247
C         1.00192557392209    2.14345028369697    0.42330500252950
C         2.89919302868095    0.04669468456851   -1.60403112246684
N         3.83726497943719    1.12945824791392   -1.94808339150869
C         5.17413087364257    0.91112758505521   -2.10116734085349
N         5.70338586226989   -0.26210532738928   -2.15160782818787
C         4.91090028754197   -1.39183058182214   -2.19705065440410
C         3.58294596041435   -1.25945512666959   -2.02276130404971
S         2.45329203870705   -2.58503531519507   -2.03921975273879
N         3.36205468807838   -3.95330346910855   -2.27828612767022
C         4.63669000042842   -3.89498209920495   -2.47571330654679
C         5.55304962884410   -2.71943343382595   -2.42889391487479
O         6.74956725800767   -2.91490476281480   -2.60436615039472
H         4.33582439263976   -1.04893455507129    0.80420504162677
H         3.75122595275660    0.36527764390014    1.74344437410818
H         4.68028378944880    0.50280421559414    0.19303488819012
H         0.25473497271069   -2.75508826456961    1.21881578978489
H         0.28215645896410    2.83602523485431    0.80322416701360
H         1.96089073330249    0.17249909139870   -2.16351375876989
H         3.38999970748129    2.03465723927095   -2.05874271014510
H         5.82286237836418    1.79593101272471   -2.22310086476939
H         5.27728071045127   -4.76767344286885   -2.67773749542184
