26
 energy: -46.147525246255 gnorm: 0.219926812546 xtb: 6.4.1 (79825abcba525fcdf90b791dcacef51065a7a4e7)
C         3.73038476552734   -0.22166072103820    0.83324733405057
C         2.49879265812542    0.01076112832540   -0.06950383906446
C         1.43615557749670   -0.99081537312691    0.35247294523651
C         0.91637350137771   -2.01722293218726    0.96594739523037
C         1.79552524168927    1.31429135724749    0.08271654779907
C         1.12805222685904    2.20812847270363    0.52118446845498
C         2.90505486126587    0.00250155450446   -1.60793923237428
N         3.78485665223234    1.14991719591262   -1.89098347870777
C         5.09961353918116    0.89797210534849   -2.14837695101754
N         5.72251779194771   -0.22327632974128   -2.26637186773039
C         4.93340037365400   -1.35439500758945   -2.33150126840798
C         3.61098372057786   -1.26682616212990   -2.09717533783834
S         2.48753479639491   -2.59722489370425   -2.05905128701955
N         3.46401849738004   -3.93161285093014   -2.20413192061092
C         4.74646953790420   -3.85103291363207   -2.33022815496024
C         5.63819514365211   -2.66351529580947   -2.46605543079425
O         6.81181404474997   -2.90292643329395   -2.72287242662168
H         3.92907810357909   -1.29955285013892    0.77693142074700
H         3.46073550158845    0.18486888358842    1.81421259760594
H         4.65047825878873    0.24734344766381    0.46622832568663
H         0.13480957683328   -2.68944901302913    1.23786937853000
H         0.54453140720010    3.09388329541047    0.65159944641927
H         2.01905052600086    0.13531800572121   -2.24560284318647
H         3.45167600415033    2.07907369673590   -1.65153457624971
H         5.76985886053407    1.76490470047340   -2.28178064777635
H         5.19638905021447   -4.84142828150526   -2.50183776822920
