26
 energy: -46.151032425384 gnorm: 0.220465223503 xtb: 6.4.1 (79825abcba525fcdf90b791dcacef51065a7a4e7)
C         3.90519230718763   -0.07765072290177    0.84550336192066
C         2.56143698331033    0.06949853798905    0.09819658350200
C         1.59497021242511   -0.97559250745504    0.63124828746332
C         0.57629907439329   -1.78943815895943    0.63231393147629
C         1.94843690563533    1.41616282706642    0.26454956719557
C         1.54043044990333    2.54265107312783    0.30024363939148
C         2.82357967526680   -0.13865470406490   -1.45739143025062
N         3.57294095584777    1.02678072721106   -1.95833633923050
C         4.89174192947331    0.88169174609325   -2.27142829674056
N         5.52115898165396   -0.24004281517996   -2.33981179594876
C         4.82685321329042   -1.41943906345361   -2.15721501954116
C         3.51676827253365   -1.44786737444683   -1.85024267562171
S         2.62164793793707   -2.93541872843819   -1.71059222912139
N         3.46045469286542   -3.86271625009953   -2.80223437162650
C         4.72987123438215   -3.72477013256294   -2.99361508386340
C         5.61899708449102   -2.64242512963573   -2.48194505194473
O         6.79859650151522   -2.89371592762946   -2.26734742831749
H         4.55086849663156    0.77555388286255    0.60127780902287
H         4.39338826310839   -1.02169437020795    0.57957820564717
H         3.74155808827062   -0.01203178490713    1.92724172841375
H        -0.02959148761700   -2.61971645629525    0.91552093022119
H         1.24306488845631    3.55835415330848    0.44852438385557
H         1.84603141499699   -0.19921781505606   -1.95738170740245
H         3.07046573326709    1.87020948322079   -1.69790687275973
H         5.35899552881238    1.86111785476298   -2.47390305357192
H         5.13226474521307   -4.49440478213023   -3.67074312212406
