26
 energy: -46.149248670053 gnorm: 0.223419158766 xtb: 6.4.1 (79825abcba525fcdf90b791dcacef51065a7a4e7)
C         3.63162780174262   -0.47794547951088    0.84858982590902
C         2.48536110424739    0.02574492566063   -0.05593620396415
C         1.26019760259325   -0.82535728680381    0.23564031438210
C         0.20902847995395   -1.57957392046827    0.07366031605850
C         2.21498819176855    1.46741229898858    0.19987780643800
C         1.90592029317459    2.47707782775962    0.76712701931174
C         2.78607582604151   -0.17103898968262   -1.60601600800580
N         3.49967692272788    1.01182186863467   -2.11820889503796
C         4.86126920816598    0.94762173389092   -2.10214041869131
N         5.57364473080417   -0.12492429690663   -2.13815000983812
C         4.87945194831905   -1.31612370588807   -2.21243291758323
C         3.57752395918243   -1.45038468889534   -1.89887230425987
S         2.68663380721172   -2.93427680563071   -1.70411443478275
N         3.83823624132859   -4.12402852949641   -1.82014330460668
C         5.00922215307145   -3.86861017142196   -2.30038024317979
C         5.58686725774468   -2.54617576685302   -2.67629922171526
O         6.61016826669369   -2.41875364095443   -3.33756516474362
H         3.49182358561450   -1.53369851651836    1.11381099325964
H         3.69865943754957    0.10785968085774    1.77195809663307
H         4.63280048986497   -0.33146954079996    0.42735598995327
H        -0.58552931454136   -2.28395542179236    0.16955735662039
H         1.62785554328743    3.46323243866738    1.07084611357038
H         1.80229715006485   -0.14808966250652   -2.09684348808090
H         3.03600826784268    1.88572475179209   -1.88803057790056
H         5.26829056195622    1.97055947512124   -2.18294546616779
H         5.69894717337587   -4.72203141450964   -2.20704220468526
