26
 energy: -46.153606658221 gnorm: 0.221165238001 xtb: 6.4.1 (79825abcba525fcdf90b791dcacef51065a7a4e7)
C         3.70602498821831   -0.21573981803758    1.11378429363612
C         2.55758098386998    0.02929941593903    0.11037468537385
C         1.46776050198661   -1.02169174799166    0.24500880188406
C         0.62937007391691   -1.92793903497465    0.66435844636508
C         1.94462304074584    1.37738760519174    0.26493191079652
C         1.39682144564051    2.43913490639910    0.16836483750019
C         2.89037995132874   -0.06477271182334   -1.44278207666235
N         3.70591775354570    1.07003249519212   -1.90951873362380
C         5.01447947564942    0.92661758875693   -2.26365398360633
N         5.56317094109942   -0.22492106490469   -2.44261475891667
C         4.85885241234090   -1.38790777850799   -2.20225064442061
C         3.56498944862514   -1.38480581495894   -1.83174863454279
S         2.60781065720551   -2.83028485273482   -1.66456370560475
N         3.51348009132041   -3.98158830401486   -2.44521936917922
C         4.73121816825823   -3.76979013392361   -2.81848812647571
C         5.63039500259944   -2.59787241844761   -2.61376494391357
O         6.84949899725274   -2.67630139751201   -2.70480521017726
H         3.74296721204641   -1.28841624819994    1.34291855706416
H         3.39576378743332    0.36137068401204    1.99182264581451
H         4.64820185149838    0.16204328851498    0.70047740995451
H        -0.08209892628209   -2.71500791985744    0.55944864403275
H         0.98432650569403    3.40448715495289    0.36838776995731
H         1.94598994153972   -0.05790100719927   -2.00611062802045
H         3.35320062050763    2.00627296501318   -1.73424373052919
H         5.65638536880510    1.81983896715941   -2.35698054974914
H         5.19782450614281   -4.59754769827264   -3.37513554691390
