26
 energy: -46.148967166854 gnorm: 0.229932975742 xtb: 6.4.1 (79825abcba525fcdf90b791dcacef51065a7a4e7)
C         3.83111749512666    0.06499713989313    0.94187367798757
C         2.57842610187713    0.10022675513492    0.03892194342128
C         1.53022176396389   -0.97845296787888    0.25831920243364
C         0.60707256252007   -1.85724015589639    0.53321080703057
C         1.80497382779571    1.35284025415818    0.26180784916900
C         1.01951713953702    2.24284885066599    0.42812560663308
C         2.94207615492192   -0.06399832361960   -1.50143171852870
N         3.79137539064250    1.05288526366800   -1.95086440518965
C         5.13672805026232    0.89760434462188   -2.10651610089017
N         5.70751223579952   -0.25650955990006   -2.14335440909456
C         4.98329375196611   -1.43171798553140   -2.11559952269395
C         3.67678106157991   -1.37606867801365   -1.79733786395223
S         2.53568377877910   -2.68276531666012   -1.95223328271431
N         3.48891242911353   -4.01331105415644   -2.22821010971522
C         4.76632096702547   -3.90800786935774   -2.38381449221989
C         5.62732150687289   -2.70319625980452   -2.55968021051167
O         6.63511753646780   -2.90926041274323   -3.22491604150298
H         4.58551799287462   -0.60855549919464    0.51560065344202
H         3.68154103803140   -0.43647598612536    1.90438158526826
H         4.31798277343799    1.02624324084343    1.14239306742921
H        -0.09123541664040   -2.62659348779963    0.77223599753536
H         0.37577606123861    3.05899486431805    0.67625725286202
H         1.98615763722384   -0.01520075564633   -2.04281637872433
H         3.33627272396431    1.96041095429467   -1.91995154003931
H         5.73839365388723    1.82184540477047   -2.15524411199515
H         5.29481469361109   -4.86811179144867   -2.49177397918703
