26
 energy: -46.149717591648 gnorm: 0.216977945663 xtb: 6.4.1 (79825abcba525fcdf90b791dcacef51065a7a4e7)
C         3.70112480565260   -0.08924460926594    1.08874634293925
C         2.47035222478874    0.04418559680009    0.16506137761780
C         1.42228738567575   -1.02957726905131    0.40798280696181
C         0.28477290817873   -1.66267220224243    0.48070404370677
C         1.87397939976244    1.40680362500673    0.23257930612988
C         1.50100518227408    2.53185106026480    0.41112229343828
C         2.89240473686971   -0.14848573958082   -1.35699317493526
N         3.70023977685585    0.94847224718370   -1.91807570025694
C         4.98813467583886    0.83756569218067   -2.35090344628187
N         5.62013907745440   -0.27492254785202   -2.49946626960400
C         4.92921165293848   -1.44480370855087   -2.25375308114662
C         3.70774869220590   -1.40271215358147   -1.69017585811854
S         2.64225191790730   -2.78016076170325   -1.72023703411633
N         3.61086025786265   -4.03875102776313   -2.20284293474246
C         4.87661849413984   -3.93434717901072   -2.43528644339012
C         5.62258115834570   -2.67752560324655   -2.73153115951217
O         6.75319052362628   -2.61055310631581   -3.19831927262430
H         4.63072583949540    0.35707429285733    0.71305589809944
H         3.90200428770468   -1.16182923698025    1.18610926043456
H         3.47586275110842    0.36710219644044    2.05943913380085
H        -0.38080942402501   -2.49551589966971    0.48727363547695
H         1.11270212169266    3.52013505969295    0.53187687588353
H         1.93094158213806   -0.14506782832567   -1.89069317217288
H         3.19312724377457    1.81187722752095   -2.08850351916005
H         5.52855010475958    1.74005808322037   -2.68565126861060
H         5.40514342832609   -4.84999329114448   -2.74352986009486
