26
 energy: -46.156439232409 gnorm: 0.223395881469 xtb: 6.4.1 (79825abcba525fcdf90b791dcacef51065a7a4e7)
C         3.67225756395292   -0.52008432505507    0.76018915021443
C         2.49034559019308   -0.04865172425192   -0.11538727910068
C         1.25723836155040   -0.84934144774719    0.27030685570885
C         0.29755296862233   -1.62520196930915    0.69111698444408
C         2.12493195722075    1.34864808947563    0.24651497428697
C         1.91112437222477    2.51373274183795    0.42977211938530
C         2.71162742641368   -0.12550876062437   -1.68924495507668
N         3.50279344775801    1.00296537103957   -2.21013874489577
C         4.86406546273385    0.94785077185629   -2.25719486362726
N         5.50672094803525   -0.16293565507248   -2.36800100170649
C         4.82758809017276   -1.36062985441433   -2.26463383960786
C         3.50026176004706   -1.39083343516049   -2.04405437055199
S         2.62442211259268   -2.87672567206250   -1.80201949465613
N         3.79163222291595   -4.05688300997042   -1.79897936041652
C         5.02184373068867   -3.84287686071444   -2.12739231751045
C         5.69107080261003   -2.55863425513799   -2.48331049915702
O         6.85341344237608   -2.49442190614739   -2.86474247095030
H         4.45154693071828    0.24661015306881    0.66328908601032
H         4.11957042165662   -1.47482976904675    0.46246070018019
H         3.29121436385815   -0.55731427803906    1.78715551215965
H        -0.70732611556144   -1.93496674320841    0.86700171772988
H         1.80562295899990    3.54425722998762    0.69236484353527
H         1.69125091287843   -0.14975323273449   -2.09851594001621
H         2.99696548676127    1.87960278402553   -2.12457096581552
H         5.36846164338150    1.92770297074118   -2.32100409306534
H         5.67920566706213   -4.71980795474333   -2.23522344361947
