26
 energy: -46.149209832265 gnorm: 0.223885355453 xtb: 6.4.1 (79825abcba525fcdf90b791dcacef51065a7a4e7)
C         3.75851366442965   -0.31536137743372    0.82109493464623
C         2.53246232966480    0.04258328408997   -0.04750880337179
C         1.43371844565177   -0.99279357858702    0.12905305754438
C         0.69948079467177   -1.93829196497491    0.64573928450819
C         1.95287049489583    1.36235506672339    0.32561703632237
C         1.49615543834070    2.46843329364058    0.39432972000315
C         2.82342935409516    0.03224627272208   -1.61183997192489
N         3.77424840615806    1.10454234970456   -1.95367639498354
C         5.08998155261433    0.87513961730663   -2.22668568450477
N         5.60504393565686   -0.29039571374055   -2.41475135007548
C         4.78867615867997   -1.38888718254768   -2.23243912116023
C         3.49194899574525   -1.32083241249879   -1.87856066919834
S         2.53576838315177   -2.77035271201723   -1.74379702207017
N         3.52742320715151   -4.00880476537727   -2.23166713491230
C         4.76241274381710   -3.87917652588381   -2.58532151610353
C         5.57528862616891   -2.63346441214140   -2.47922804626727
O         6.79473498988385   -2.63630475782301   -2.59583203523963
H         3.58917703914934   -0.80576278735891    1.78822136102951
H         4.26048070686069    0.62759135405288    1.06428031028944
H         4.39830649259463   -0.89534342221403    0.14616837118390
H        -0.18059174455172   -2.48742237096405    0.89190946721849
H         0.86225185220831    3.31483556218539    0.54871772419780
H         1.85841692571405    0.16491974843434   -2.12214138026784
H         3.54959885392461    2.04310890704505   -1.63697097690850
H         5.63907467593002    1.81904630331020   -2.38834696064903
H         5.19031456857504   -4.85235825062686   -2.87268498936114
