26
 energy: -46.149797957578 gnorm: 0.226213899181 xtb: 6.4.1 (79825abcba525fcdf90b791dcacef51065a7a4e7)
C         3.71484950301489   -0.15321809614745    0.93387918970590
C         2.49123233967873   -0.07174960072877   -0.00522816462437
C         1.52457690330794   -1.21439893376052    0.26000230800240
C         0.44488481767140   -1.92654869435820    0.42475813708137
C         1.83177108701842    1.23129676753689    0.28482037422191
C         1.54894710414608    2.36014181976821    0.57194153012378
C         2.84656442351220   -0.04954878088799   -1.55608176342929
N         3.78739543175253    1.07199371185286   -1.72253698407937
C         5.06905750259868    0.90752906567459   -2.15682619280766
N         5.67088797591467   -0.22610833206188   -2.26543969515109
C         4.88971161348219   -1.35909119140893   -2.15367685132171
C         3.56008167254221   -1.34883112351621   -1.94549016293844
S         2.51923209953368   -2.74531849229259   -1.94286366960790
N         3.59524828446488   -3.98566877336832   -2.18551646132080
C         4.86467724910987   -3.84636037537560   -2.37582497681375
C         5.63354631797791   -2.58382393988970   -2.57245610116388
O         6.77349743520158   -2.50282142618938   -3.01359557575425
H         4.09598375435144   -1.17558725570562    0.81555781374288
H         3.41631406426790   -0.12604535359925    1.98763823381882
H         4.44632460478734    0.62222867641355    0.67919040821062
H        -0.39315475966874   -2.56369738739224    0.59328954192640
H         1.01895277719437    3.21549930865465    0.93185233890177
H         1.99631399544680    0.06826082704636   -2.24343456303706
H         3.37947938504619    1.98136299698288   -1.91831473705443
H         5.52259301047626    1.88602010851840   -2.39232201275159
H         5.34269920315752   -4.80552980322649   -2.62929968780072
