26
 energy: -46.149511674504 gnorm: 0.226354543923 xtb: 6.4.1 (79825abcba525fcdf90b791dcacef51065a7a4e7)
C         3.97424997187537   -0.11384066768953    0.74139258665794
C         2.63210590574278    0.02436402821865   -0.01050333412316
C         1.53673834658772   -0.94651875780620    0.39934294961274
C         0.58880768457040   -1.81897757785308    0.60004133534102
C         1.97636830348607    1.33835172810310    0.23524384245849
C         1.38413544514214    2.30242648345061    0.63089423396240
C         2.86228423485881   -0.10955617114335   -1.57925569683128
N         3.61054962360721    1.07457805439932   -2.03604112853373
C         4.89183963539232    0.95713809093331   -2.48639338938840
N         5.50446547634497   -0.17506654216314   -2.53035705213886
C         4.87726793350424   -1.37591150638709   -2.26395095159595
C         3.56649271234688   -1.41609239251359   -1.96126865202324
S         2.48459894874648   -2.77070479638177   -2.12884797029084
N         3.55293757962520   -4.03976793669736   -2.07147771458349
C         4.83674671198929   -3.90522215432773   -2.09986088678717
C         5.64377199622406   -2.65558793027056   -2.20448496458847
O         6.85172556202941   -2.77151842864027   -2.37200301680203
H         4.75780982812454    0.36697542069823    0.14193299278330
H         4.20977874598442   -1.18280230352585    0.78740465478895
H         3.82048626358745    0.32539253647966    1.73369839345817
H        -0.29661578632280   -2.32214859495130    0.91550264181463
H         0.82137907602235    3.17736270679878    0.87555336203434
H         1.85713567091066    0.05542072134731   -1.99364411290310
H         3.09592786500296    1.93478659423978   -2.20000038366396
H         5.42811120760763    1.86409600085436   -2.81569204866532
H         5.39272427516515   -4.84309328887587   -1.94478962470746
