26
 energy: -46.148408718830 gnorm: 0.221117670823 xtb: 6.4.1 (79825abcba525fcdf90b791dcacef51065a7a4e7)
C         3.54245401644802   -0.24554095299016    0.94110339355022
C         2.36533489657697    0.00412115005248   -0.02732736008175
C         1.28256803507476   -1.04357044708646    0.17360967149873
C         0.16275410709453   -1.48942056266207    0.67087340558943
C         1.87013920091364    1.37659458790801    0.26939644504957
C         1.59045635114227    2.49299386997768    0.60428337923653
C         2.89520288782408   -0.13073315720375   -1.52163485074748
N         3.71843525172653    1.07627819807139   -1.71173994903501
C         4.92926307765062    0.87923281005398   -2.30619977982384
N         5.52332229051967   -0.22427610878784   -2.60367629673695
C         4.88694044876552   -1.42678144103041   -2.36835378381384
C         3.64724965217449   -1.42654557579270   -1.84439822771194
S         2.76429213444796   -2.91615520077894   -1.65731296953484
N         3.67709638222851   -4.07595531933504   -2.41679445013239
C         4.93033022194629   -3.90553204010463   -2.67647677499731
C         5.70943291959087   -2.63398942097352   -2.67623600583498
O         6.93047480770587   -2.57607562070718   -2.75596489044499
H         4.03217473611883   -1.21874212785517    0.80860791344713
H         3.20102102323492   -0.12312424692746    1.97488652031906
H         4.32138843364089    0.50469384985386    0.76320225604669
H        -0.70565045268310   -2.10486651700199    0.73228539505124
H         1.26477477941339    3.51007240250139    0.64364048400697
H         1.97303468404262   -0.00886302997794   -2.10816042009002
H         3.46242910882058    1.91113292425560   -1.19293809512768
H         5.46805936563000    1.79281441527567   -2.61224662469417
H         5.51249202866262   -4.72105578416310   -3.13338931382183
