26
 energy: -46.153096316824 gnorm: 0.225931572595 xtb: 6.4.1 (79825abcba525fcdf90b791dcacef51065a7a4e7)
C         3.88497863349768    0.04834640294687    0.87259092814887
C         2.59737830243007    0.09792199563780    0.02087129324874
C         1.65829037800189   -0.99763665211853    0.49866052186800
C         0.73311416804407   -1.70558488714304    1.08423292373254
C         1.73739083353421    1.30872950945568    0.12723782682203
C         1.06921449448129    2.30327225680816    0.09341167055007
C         2.90854582210617   -0.08665178327945   -1.52864731765996
N         3.69366627955117    1.06659053589452   -2.00229897798810
C         5.03984523842469    0.85313960825088   -2.02584269249636
N         5.66792583573551   -0.26894713582428   -2.10045269794560
C         4.97540655690235   -1.46249452142551   -2.14777360758214
C         3.66777938774598   -1.38111389289041   -1.83979453230164
S         2.56874481591685   -2.73188184972272   -1.87297029912466
N         3.44983776596811   -4.05551606276194   -2.34923462330861
C         4.70318360089037   -3.95403824574863   -2.64232252778747
C         5.56942274816040   -2.74018086674808   -2.64102685531904
O         6.72694905352033   -2.81433202994911   -3.03509339798063
H         4.63786427951630    0.68007164546791    0.38413583056801
H         4.16689160931873   -1.00984650672005    0.90457108805958
H         3.73199134087587    0.38050457020018    1.90579261874916
H        -0.09603559674768   -2.26453280535187    1.45404303128346
H         0.38334047105125    3.09855474897076   -0.10449938612324
H         1.94257183738825   -0.11820837948384   -2.05320161353816
H         3.36356643583695    1.99572399621398   -1.75853263962304
H         5.70022547196264    1.73501599892013   -1.95663694489607
H         5.25785171227339   -4.85881955608782   -2.93638794923293
