26
 energy: -46.147043151537 gnorm: 0.208490198154 xtb: 6.4.1 (79825abcba525fcdf90b791dcacef51065a7a4e7)
C         3.94904321046607    0.01390017389055    0.90189897263566
C         2.64230691118133    0.05813412026085    0.07953511689643
C         1.76233759330666   -1.10190334075508    0.51586590979299
C         0.58717087801058   -1.66547635333959    0.47837662450268
C         1.79087045479091    1.24445858788070    0.37046012333162
C         1.07550284498783    2.15073381250109    0.69238172241804
C         2.91071522552931   -0.03548328512386   -1.48606170627147
N         3.80636299537601    1.03218052552823   -1.96422165896312
C         5.07823548143211    0.87090278767169   -2.42751774607096
N         5.64527570177670   -0.28541747244840   -2.45030813042919
C         4.88838582036846   -1.40735868276088   -2.17691605557921
C         3.59021924570099   -1.36698667192886   -1.82407559204045
S         2.49875659091755   -2.71682207458510   -1.96622116745063
N         3.39981619522782   -3.91207928684572   -2.68358565859496
C         4.68775295666545   -3.83218487791324   -2.72728735107757
C         5.60086753850959   -2.70097292337918   -2.39501792690761
O         6.80399368089602   -2.82599752318102   -2.20134209765476
H         4.39271022155657   -0.98369303467710    0.79023278546541
H         3.71540917934581    0.11844662320064    1.96714780281501
H         4.73549090254132    0.71519309196406    0.60035599490923
H        -0.09651301001316   -2.31763533637468    0.97227605283962
H         0.46578056089401    2.98670766795815    0.95968802418950
H         1.90241722853962   -0.03958413639688   -1.92489778064056
H         3.29766751096570    1.89972143833635   -2.10662458375655
H         5.45349497710759    1.71320329219038   -3.03440128233590
H         5.27790311438074   -4.68407349945868   -3.09980443704344
