26
 energy: -46.147952960372 gnorm: 0.229490387179 xtb: 6.4.1 (79825abcba525fcdf90b791dcacef51065a7a4e7)
C         3.70136361349827    0.05835744542010    0.97682804585440
C         2.52107380615472    0.12916121823280   -0.01700367967353
C         1.44249691700165   -0.87416277145918    0.35773664548650
C         0.70906804432139   -1.93055845421250    0.57255522654904
C         1.72195156421768    1.37355312630377    0.15573763732281
C         1.23969641139031    2.41575359685174    0.49920126682404
C         2.97111613547970   -0.00772808970156   -1.53707731595109
N         3.95033843781931    1.07430051784460   -1.73972396307466
C         5.07041535835183    0.79220998916074   -2.46371707665743
N         5.57863528750370   -0.36453349334051   -2.71429158660983
C         4.86967612513331   -1.46692743739869   -2.28014632152400
C         3.57176554058198   -1.35865517503526   -1.94092959429294
S         2.56556287769590   -2.77064878001671   -1.77545461902541
N         3.51589518035985   -4.09929949683331   -2.06993011035630
C         4.75698341979463   -3.96137225809600   -2.39818324265209
C         5.60935673379246   -2.74294734150881   -2.51097578581842
O         6.78732003557066   -2.72235048895105   -2.84658303744168
H         4.18158868658515    1.03935066030091    1.08424384158263
H         4.43823321835955   -0.67174024686062    0.62433629422065
H         3.34891411970570   -0.29661727879357    1.95202658838913
H        -0.05146532863144   -2.67633545929901    0.52697806991881
H         0.67872587090631    3.27369341658194    0.80138917168163
H         2.09948338627638    0.23095625889818   -2.16361135381046
H         3.54543512541539    2.00269952536756   -1.66353002217619
H         5.66442318796736    1.66595994973150   -2.78358137069373
H         5.22925821269879   -4.95493079508022   -2.44876352813433
