26
 energy: -46.148994166790 gnorm: 0.211649519685 xtb: 6.4.1 (79825abcba525fcdf90b791dcacef51065a7a4e7)
C         3.87882368962282   -0.28820269511405    0.86944665542035
C         2.57054755705651   -0.03806037902848    0.08737180305894
C         1.46627679711793   -1.06232622973579    0.29202517542210
C         0.24484138446867   -1.51765712764030    0.32041679051116
C         1.95088909467142    1.27948760186324    0.39888076515626
C         1.39599573585531    2.32677529694019    0.57776886079587
C         2.84282477181420   -0.07541334798518   -1.47990944833667
N         3.67721681030397    0.99158637355879   -2.05958988432927
C         5.02857341178249    0.85038997693440   -1.94908052266952
N         5.65054546543161   -0.26609616721499   -2.10951749555557
C         4.84306802935617   -1.37896386752792   -2.23554639437391
C         3.53720057988278   -1.37225856673812   -1.90992698937372
S         2.57400116503198   -2.82256542190653   -1.86084928569838
N         3.65901191672374   -4.05803909353167   -2.08782175723020
C         4.89066478849290   -3.84052864507069   -2.40843751798573
C         5.59905061869411   -2.56799107797170   -2.72884250781537
O         6.68304238669488   -2.42356534878586   -3.28089055835832
H         4.78823005045304   -0.18932830439787    0.26305908664596
H         3.79751520490397   -1.27978186368320    1.32817268619740
H         3.96141498816615    0.35243066242297    1.75488862085248
H        -0.44366887731383   -2.30686558844793    0.51985414707344
H         1.05725542281675    3.33908557617977    0.62825751418466
H         1.86652050579078    0.02996764584900   -1.97486762353397
H         3.31703854635555    1.93973284624975   -2.00512144159010
H         5.59370227023371    1.78149367149151   -1.76943435620892
H         5.55791974361558   -4.69756093309616   -2.59017055050323
