26
 energy: -46.150395818620 gnorm: 0.221543198843 xtb: 6.4.1 (79825abcba525fcdf90b791dcacef51065a7a4e7)
C         3.82510882016140   -0.34616097743168    0.64226004779495
C         2.51684968886275   -0.04506719144511   -0.12167665371098
C         1.45294429846879   -1.06740141630130    0.24350207202728
C         0.30560279891722   -1.63587777604039    0.48942662680075
C         1.92008566073155    1.26282803967307    0.26591836702240
C         1.67787789368660    2.41174522657563    0.50684120159358
C         2.77859307643017   -0.06694068186555   -1.69104359920621
N         3.59522071972342    1.08740220962377   -2.10497555477666
C         4.94305959219450    0.91424335604916   -2.21295601225190
N         5.61067145070223   -0.18148707879657   -2.32609210883772
C         4.86654955086783   -1.34312822001954   -2.26908292852613
C         3.57180675781050   -1.36121566998114   -1.90209971300945
S         2.60289590331716   -2.77137364164744   -1.57618875485206
N         3.65869543626096   -4.00039200639235   -1.93669011198718
C         4.86953667126738   -3.91128331256704   -2.37600457249869
C         5.58538622607144   -2.61712505662070   -2.56714719694186
O         6.76613746029771   -2.56247134601338   -2.88885122738025
H         4.78031525708966   -0.26199553607262    0.10840725874447
H         3.82398487537166   -1.39918439023058    0.94460144536296
H         3.87229173271754    0.29866583415808    1.52725273368862
H        -0.42250113763231   -2.26417966525163    0.94961465863683
H         1.36231413448695    3.36315681918370    0.87738364993611
H         1.80584357263080   -0.06973177079618   -2.20388799607860
H         3.11660469776510    1.98320388797429   -2.09301819955136
H         5.47245255890510    1.87205055905390   -2.35768301830807
H         5.35437889763335   -4.87899545472159   -2.57903566911195
