26
 energy: -46.151954100364 gnorm: 0.230536097781 xtb: 6.4.1 (79825abcba525fcdf90b791dcacef51065a7a4e7)
C         3.58171250007798   -0.50445795461430    0.98229068051994
C         2.44496888431714   -0.04443163200708    0.04314828414738
C         1.10168089418495   -0.74567606898025    0.16252612984613
C         0.14427570380563   -1.62845393722883    0.09837540821083
C         1.98925331326130    1.34585669595968    0.31949739847918
C         1.76559245362760    2.46052756430336    0.69923914988253
C         2.91492967340685   -0.12584692441508   -1.47487973405220
N         3.72942665879737    1.07907015077041   -1.71045856521721
C         4.97076707292496    0.95681424708608   -2.26040480526421
N         5.52775845740863   -0.13612237711999   -2.65331788894688
C         4.87306908072515   -1.32494025734798   -2.39940557182197
C         3.66714002762119   -1.41862593841177   -1.80921843659658
S         2.79810098375940   -2.87830895347952   -1.42496808669106
N         3.73155404493886   -4.09943851520350   -2.05160035786535
C         4.87064381135911   -3.83479725681912   -2.59887868140146
C         5.59597219374589   -2.55440751032749   -2.84037925844150
O         6.71341097745925   -2.49253458208184   -3.33853214312308
H         4.41601182647234    0.20593340298265    0.92072188879939
H         3.82731279606307   -1.55283529635664    0.78016365663174
H         3.17093993362009   -0.57712376307918    1.99581200696368
H        -0.70039211119321   -2.27894853256331    0.10641876799461
H         1.47577892319755    3.38710495025178    1.14592548210482
H         2.02530179494481   -0.04390816118061   -2.11605603316995
H         3.36134058066552    1.92946155322156   -1.29449699905234
H         5.56911885746263    1.88372120768900   -2.29803572940654
H         5.41287137217328   -4.67765743626044   -3.05531750887531
