26
 energy: -46.155054729607 gnorm: 0.230050194658 xtb: 6.4.1 (79825abcba525fcdf90b791dcacef51065a7a4e7)
C         3.83906194315635   -0.02334586642673    0.92048631312761
C         2.58419119111682    0.17765590544358    0.04259316772699
C         1.48870910959735   -0.77371168243246    0.49562313607204
C         0.68225356584893   -1.77012312793606    0.73401451586062
C         1.93134418716755    1.51071280571472    0.15962825607657
C         1.22572302908845    2.47898296732082    0.19527628212601
C         2.87793718175648   -0.09347693231547   -1.49756945579269
N         3.77942289551336    0.90677035912431   -2.09552994731710
C         5.13445465311371    0.76120187866444   -2.06371554101717
N         5.72274708663648   -0.37994417961619   -2.16777442910937
C         4.85606344902501   -1.45454122766282   -2.18964352925318
C         3.54955604512387   -1.42024943147638   -1.86835671672279
S         2.48654138029543   -2.79986912233947   -1.85417836048454
N         3.49980288331091   -4.06639077371297   -2.20685960624087
C         4.74507183775531   -3.95279137789541   -2.52853408198952
C         5.55064435543587   -2.70168041951255   -2.62649319903861
O         6.72027618414435   -2.72966274553131   -2.98958047570516
H         4.47887455088178    0.83995501526740    0.69720761409725
H         4.35304517260355   -0.95546507442870    0.66117007829237
H         3.65675343144394    0.01282733082238    2.00062287825444
H         0.01505935215959   -2.52387094172299    1.08528042511724
H         0.59119815355946    3.33346121843013    0.29177138871862
H         1.92509973302206    0.08799117017982   -2.01567069056135
H         3.38846272925416    1.84412877406406   -2.10917826682609
H         5.64547487529109    1.73389048446477   -2.17017055534884
H         5.29156154324568   -4.90772033465751   -2.57565202384945
