26
 energy: -46.154203302624 gnorm: 0.218996863914 xtb: 6.4.1 (79825abcba525fcdf90b791dcacef51065a7a4e7)
C         3.91279956686476   -0.16191192685376    0.84221759025415
C         2.59004316620356    0.01658239450859    0.06487983262211
C         1.51067925758377   -0.98139912916125    0.45143369107255
C         0.39676179047175   -1.65261121729932    0.35816531572244
C         2.02068086536695    1.38193459749020    0.23395696062223
C         1.42502092082068    2.42005986545461    0.29879735173561
C         2.86129485413141   -0.14204451474896   -1.49497935571898
N         3.59309319373767    1.04686355951896   -1.96582611513349
C         4.87772392141648    0.90020102079341   -2.39771428564974
N         5.51042660773337   -0.20854570290575   -2.56946576792679
C         4.88654934803644   -1.39007375653202   -2.22140511425401
C         3.59664727840789   -1.44148894607214   -1.84078473358201
S         2.58457620227527   -2.83424631062495   -1.57717373102529
N         3.58044856785193   -4.03890584202720   -2.13591667301335
C         4.80550260863597   -3.86863558349806   -2.50649014018351
C         5.64392813498790   -2.63591832494844   -2.54216221189061
O         6.84948593488513   -2.70128449205809   -2.74955470972058
H         4.40653435851389    0.81011377482038    0.71614635183326
H         4.51843845867107   -1.02242316615273    0.53727197535876
H         3.75681761740435   -0.27407411544144    1.92125844810374
H        -0.32273486788359   -2.43551727722533    0.43597466092589
H         0.98565818872546    3.39089292057531    0.37948055786951
H         1.86394330639057   -0.10041771831765   -1.95629906470791
H         3.12258494783636    1.90950501028685   -1.70863233021201
H         5.39623913311514    1.86804906038241   -2.51177394623851
H         5.24087926821488   -4.82324555663260   -2.84104562897144
