26
 energy: -46.147319683755 gnorm: 0.216670910711 xtb: 6.4.1 (79825abcba525fcdf90b791dcacef51065a7a4e7)
C         3.77164130709626   -0.15625700790217    0.79434508279231
C         2.46357942250322    0.09558633921611    0.01245778844199
C         1.38015158447994   -0.87586902979494    0.45163431942628
C         0.23404524087525   -1.49739329884728    0.43804737625065
C         1.94694562408844    1.46980049502418    0.26059504482822
C         1.55969578281601    2.57086882384643    0.53336821623556
C         2.83412560474057   -0.13193006452761   -1.51817360267692
N         3.67759365718281    0.96183200104191   -2.03098357938506
C         5.00258441337205    0.83554519640553   -2.32554178745519
N         5.56830741474614   -0.31276109065894   -2.46865265063820
C         4.85088965405977   -1.47661722121010   -2.27596565746751
C         3.60447133729607   -1.43268679152748   -1.77012550495183
S         2.61587742913824   -2.86573109857257   -1.71896090334464
N         3.65476535014103   -4.09070228239218   -2.13767024899315
C         4.89789648212601   -3.98931054958470   -2.47146474996686
C         5.65002292730144   -2.70478953532248   -2.56164943727572
O         6.86621273802708   -2.62297689609663   -2.68348143925619
H         4.51040412840341    0.54569877485272    0.38692694664510
H         3.97092169295613   -1.20841860502442    0.56301588908167
H         3.71424565573106   -0.04325267758489    1.88300281428126
H        -0.45141033959175   -2.23689583155636    0.78439731924889
H         1.30420435716599    3.57949906988978    0.77720292169547
H         1.90848780877253   -0.01167612502875   -2.09954476485352
H         3.25159248608477    1.88353203754969   -2.05684801113805
H         5.48458757362361    1.78539436014755   -2.61546760292309
H         5.19433615491737   -4.97523526282832   -2.86240769999212
