26
 energy: -46.151100005263 gnorm: 0.222581532888 xtb: 6.4.1 (79825abcba525fcdf90b791dcacef51065a7a4e7)
C         3.58270985771968   -0.36036164092548    1.01074936435368
C         2.43761239154063   -0.00925438822592    0.03541650581626
C         1.29478623512171   -0.97645319144045    0.29788989096888
C         0.59276880875242   -1.98256788307097    0.73941171865487
C         1.98141628432918    1.36244018659863    0.39218846025135
C         1.70707967042150    2.52859045688212    0.43158487006860
C         2.87735760602637   -0.06892258828648   -1.49264254796917
N         3.62736045898409    1.10359111233189   -1.97579388347999
C         4.97231847866957    0.93473290457160   -2.12032148856726
N         5.56936663121114   -0.18032136806289   -2.36387442630403
C         4.87374143915731   -1.37058228165219   -2.28796556044601
C         3.56245477901755   -1.34816218302947   -1.98566209969157
S         2.57720187031015   -2.77448148104454   -1.81701551259661
N         3.62582449660183   -3.98474265243079   -2.25384329779715
C         4.88205375888103   -3.86941331079121   -2.52890918984148
C         5.62062399091870   -2.58830361813470   -2.72150636317478
O         6.77590521386105   -2.64220946369272   -3.12532989776031
H         4.28681652842720    0.48109972429648    0.98470075167379
H         4.18524275925693   -1.21237903629242    0.67714728427113
H         3.24444085126062   -0.41461446616669    2.05184042893055
H        -0.25677660463944   -2.61391686880721    0.86725019455420
H         1.53956566738229    3.56884976301811    0.61009492854423
H         1.90306404100917   -0.10036710341684   -2.00158465267651
H         3.26895623401546    1.98674477854436   -1.62470566529831
H         5.65103544090242    1.79431449660964   -2.25838028546028
H         5.44267629121974   -4.78998829061048   -2.75475093962152
