26
 energy: -46.153629869552 gnorm: 0.215409324529 xtb: 6.4.1 (79825abcba525fcdf90b791dcacef51065a7a4e7)
C         3.87407319234696   -0.18947146304204    0.85586397839238
C         2.57727723019969    0.01124045170021    0.04110410439188
C         1.47616258887454   -0.95126947281362    0.45527632114213
C         0.48632578856592   -1.79539145363297    0.54312822254444
C         2.07132935716671    1.37056821828661    0.37754414408256
C         1.68950220809685    2.50504153012117    0.43997364097772
C         2.75214305999785   -0.12126280765899   -1.53489255215868
N         3.47658765735431    0.95630009238768   -2.23114401165417
C         4.83600825987322    0.86538588174182   -2.18615922926044
N         5.49015570174160   -0.23778309020815   -2.06682816004789
C         4.80399604794023   -1.43214966412803   -1.97169129762510
C         3.46745851020196   -1.44759991028245   -1.81423831058573
S         2.53600356853205   -2.91009741524700   -1.97869023463206
N         3.59153010469207   -3.93301166212859   -2.74983886003690
C         4.86790990186752   -3.74065700332927   -2.78030779296485
C         5.68397502084078   -2.59923125691203   -2.27532592560405
O         6.90872833777020   -2.62331405626953   -2.28262784247404
H         4.45740311701906   -1.10703770309106    0.70653096123103
H         3.60581473702788   -0.07337921041962    1.91171902535019
H         4.54078200488114    0.64867340620568    0.62294245850256
H        -0.17205101870960   -2.40544595778033    1.11849342042626
H         1.35636681350871    3.51227290769436    0.56870579374946
H         1.75580762084516   -0.11131992306959   -2.00016193160289
H         3.03262167580275    1.86921840928315   -2.26507445871298
H         5.37848857280240    1.78809187072070   -2.45620779401358
H         5.42993124198037   -4.54493455589280   -3.28033783506358
