26
 energy: -46.150874462304 gnorm: 0.220022187923 xtb: 6.4.1 (79825abcba525fcdf90b791dcacef51065a7a4e7)
C         3.57213375948494   -0.57844490708345    0.87214525178278
C         2.45752512025265   -0.02223142916084   -0.04113063311801
C         1.12620056934260   -0.67303586686824    0.29716800078525
C         0.09442822347583   -1.25011550343402    0.84713317393651
C         2.13054630269499    1.41008255226298    0.20075495550285
C         1.87896364218933    2.58007726673367    0.26811696949451
C         2.75128172860867   -0.22434028673317   -1.59185939521468
N         3.44775673604193    0.90197500728315   -2.23766455147353
C         4.79747811889581    0.93166788811696   -2.04876266208695
N         5.53962997536666   -0.12105341831284   -2.03785234872459
C         4.87030963504302   -1.32422226141992   -2.14164353335825
C         3.55692101245267   -1.49122325970654   -1.89980943860472
S         2.75580176136602   -3.03395262060769   -1.79143161171050
N         3.90487379332167   -4.15414816748003   -2.21564314699480
C         5.10126083955119   -3.83155454549581   -2.57850048064547
C         5.72570220653597   -2.47764602997300   -2.54975329292289
O         6.92774264043984   -2.47080164017604   -2.78577434667164
H         4.55681507560698   -0.33921868020934    0.45062955935491
H         3.43607559786191   -1.66553185352871    0.87233985938328
H         3.43731061124434   -0.10842260389798    1.85303344674129
H        -0.93958747587221   -1.50319854772105    0.78854871483069
H         1.67057034919244    3.62168409891262    0.38513683184842
H         1.74886365959446   -0.33408545621868   -2.03046260955477
H         3.04002702931948    1.83198544989952   -2.21499327863475
H         5.26803144868666    1.92958658667356   -2.08530434041013
H         5.73117900811246   -4.64098309445602   -2.97948543467931
