26
 energy: -46.148049402392 gnorm: 0.209767448349 xtb: 6.4.1 (79825abcba525fcdf90b791dcacef51065a7a4e7)
C         3.95795139719635    0.07352141199242    0.94018178827874
C         2.63056523793659    0.07085152638540    0.15034791226712
C         1.62628146570976   -0.97760320153015    0.60043038072463
C         0.55073584039318   -1.70524787944546    0.48307789913139
C         1.97692518303603    1.39770112830534    0.32114588549349
C         1.27246682479747    2.36697422954748    0.35224557916204
C         2.89092996413232   -0.11540428107090   -1.40831164591759
N         3.65459320885590    0.94912261671333   -2.08235082097158
C         5.01088571756319    0.81481231303270   -2.05506028241448
N         5.58705352023132   -0.33703736791863   -2.07514847821695
C         4.81894943525441   -1.48400203309950   -2.10457250252819
C         3.51920641385233   -1.46950117752668   -1.75554450017927
S         2.47957137593768   -2.84650223627936   -1.99340741847513
N         3.47768248551615   -3.99510025012393   -2.65647365964638
C         4.75979230543662   -3.88478219791997   -2.76182256381780
C         5.60725105111598   -2.68185672696798   -2.51973646756796
O         6.81284270219562   -2.60241033894285   -2.72195177866855
H         4.13923265966977    1.03161909897992    1.44385617280554
H         4.81154304782094   -0.08847106657294    0.27279163299973
H         3.84573389783264   -0.63058375313023    1.77257775586581
H        -0.11626224440702   -2.49844778563770    0.73331597761768
H         0.65599795937791    3.18722634374859    0.65094076984910
H         1.93595438802827   -0.09927521403791   -1.95330730866170
H         3.32026099330699    1.90203813892112   -1.97348897719747
H         5.64669732822370    1.71722066287478   -2.05458724591407
H         5.31050650877027   -4.73907981749741   -3.18567377831630
