26
 energy: -46.152971216268 gnorm: 0.223186436966 xtb: 6.4.1 (79825abcba525fcdf90b791dcacef51065a7a4e7)
C         3.50053639829998   -0.60232602311496    0.91833799219885
C         2.39976397239151   -0.05774413454486   -0.01842735873478
C         1.16258907076398   -0.93716468520876    0.06179220699623
C         0.17782553453835   -1.72875068672699    0.38376912641106
C         2.08277162738911    1.32918070545512    0.42077925810495
C         1.90294390636621    2.50081853680128    0.59867215362492
C         2.85546254694890   -0.02297268478916   -1.54257642851701
N         3.72041334843056    1.14267709330140   -1.79525918657817
C         5.01172102311546    0.96430611183844   -2.19403440474315
N         5.46701908176054   -0.14393856532030   -2.66692759683854
C         4.76486679376182   -1.31212036940254   -2.44622182251222
C         3.53901433751360   -1.34947116135924   -1.89191737388272
S         2.76304148226878   -2.87245698351868   -1.55735495668946
N         3.90926679604104   -4.06145369053660   -1.72353072978777
C         5.05304811423877   -3.81033493530451   -2.26738523820442
C         5.53320609150298   -2.52570485308454   -2.85304347258179
O         6.52493813883655   -2.48376336787771   -3.57093096504386
H         4.46172642934163   -0.48296419081838    0.40222905232598
H         3.40775797358187   -1.65036183365601    1.22376062942003
H         3.53317764816239   -0.03459111927262    1.85527530275460
H        -0.67916041376897   -2.35911719238083    0.45366028906475
H         1.70078717025504    3.53839878818562    0.75559913364265
H         1.94771084348312    0.03881416406428   -2.16017499965359
H         3.26009771095573    1.97083725448611   -1.42928489271957
H         5.61585304139061    1.88394115536875   -2.28287891317757
H         5.77579709323451   -4.63768001511438   -2.19060995929427
