26
 energy: -46.149809385047 gnorm: 0.207318714853 xtb: 6.4.1 (79825abcba525fcdf90b791dcacef51065a7a4e7)
C         3.68769920747467    0.11680403850095    1.10982852404501
C         2.50953996187650    0.07137698151776    0.11199292750311
C         1.45513558864094   -0.96794110951116    0.45618296348725
C         0.22528440944912   -1.38200246871209    0.32947047077634
C         1.81081534617369    1.38542307623365    0.15686961999881
C         1.29202929983148    2.42294535729877    0.45874322734268
C         2.94510921418433   -0.19494239364148   -1.39507510551233
N         3.76000500842399    0.94294848131223   -1.85537617973533
C         5.06319633048768    0.80439046696922   -2.23061936386841
N         5.68026076229191   -0.32260635849879   -2.32139489021002
C         4.94634042090076   -1.48937497590793   -2.24146041493298
C         3.71631252519604   -1.48491776335700   -1.69522398232899
S         2.76974743122770   -2.93099610544248   -1.47976250177719
N         3.65117467155900   -4.10936647792810   -2.24767480695710
C         4.80491236481084   -3.93912558808226   -2.80173385248744
C         5.60283983181775   -2.68052095317653   -2.85694087331904
O         6.62313497825016   -2.57700479959782   -3.52696789157496
H         4.50173096397387    0.74752024741830    0.73028758469053
H         4.11798807224918   -0.88320574549550    1.23271796584164
H         3.39050218182447    0.47604448685953    2.10172575903544
H        -0.51217570068919   -2.12380131348177    0.53576806979279
H         0.71448530662744    3.30997444439677    0.60601354812710
H         2.05843291394883   -0.35204064328999   -2.02625182344545
H         3.25913574088877    1.80495908933771   -1.66109645600581
H         5.50470477100027    1.80645994564800   -2.37034950665212
H         5.33423104905764   -4.82739592015979   -3.18062427767262
