26
 energy: -46.151479498186 gnorm: 0.220243372575 xtb: 6.4.1 (79825abcba525fcdf90b791dcacef51065a7a4e7)
C         3.48539967854133   -0.59953334352908    0.98461926050105
C         2.47373056340901   -0.02070027434288   -0.02892728017631
C         1.28127261266603   -0.96035889026312    0.04525629644886
C         0.26211116630363   -1.44806483588416    0.69601712517325
C         1.88319174718741    1.31170114778253    0.27589644793452
C         1.36176994492627    2.37918069886951    0.43503736957872
C         2.91059858468707   -0.05102525125214   -1.55867477353147
N         3.79907285929349    1.09053993488588   -1.83826425443493
C         5.07534705368875    0.93957149119381   -2.29284769921285
N         5.65787653635288   -0.19053852472303   -2.49934543624118
C         4.94930776522510   -1.35846261029927   -2.29869341126734
C         3.66403137017878   -1.34132291699323   -1.89977790864767
S         2.78264930405113   -2.79318643313802   -1.51401930653000
N         3.67022180990856   -4.04724795413736   -2.14227465069051
C         4.83640562503945   -3.83437394536827   -2.65391321873364
C         5.65565893996215   -2.59234274914276   -2.75393429159158
O         6.83090646488284   -2.56929046389453   -3.09877605694179
H         3.37860881655995   -1.69179901397668    0.99192549734365
H         3.21699253543281   -0.21488431433158    1.97470643966504
H         4.52259067548725   -0.28235968530295    0.82689924477097
H        -0.55842551674463   -2.09279158688590    0.91446302629256
H         0.91984287296766    3.35219663410269    0.43245557508882
H         1.96061675998505    0.10953382841683   -2.08878238990202
H         3.38022667100947    2.00426119969066   -1.69211964831869
H         5.68041539055497    1.85837446168241   -2.38390190107658
H         5.47033042262051   -4.70220086459013   -2.89428003103558
