26
 energy: -46.147316627508 gnorm: 0.231573868022 xtb: 6.4.1 (79825abcba525fcdf90b791dcacef51065a7a4e7)
C         3.83445081192955   -0.19762015944455    0.66819384272339
C         2.49235274631462    0.04319771104526   -0.05746325663077
C         1.54402807287882   -1.09301589141740    0.28911483789432
C         0.60321544973964   -1.90279383683337    0.68807352946035
C         1.91985920789110    1.38293698501476    0.24961478742774
C         1.65814961009896    2.51327513082888    0.55055141762393
C         2.75090876054536   -0.08047520925722   -1.62263239398118
N         3.57952780515043    1.05001266735631   -2.07663187247182
C         4.88969062857706    0.90898767361849   -2.42577185085172
N         5.52068388086076   -0.21314044151272   -2.46827559968059
C         4.87433317117129   -1.41361667365663   -2.25041053385111
C         3.54824258783798   -1.32101603952225   -2.04000224108039
S         2.58158487784923   -2.74408397422930   -1.76796869267980
N         3.53299830243228   -4.02238451496346   -2.23264089159029
C         4.80660262579927   -3.92288536489067   -2.42000686103584
C         5.64238313330883   -2.68978178623911   -2.35109963266179
O         6.86092058153962   -2.64783978558624   -2.23251906262588
H         4.58887767101165    0.34830364626138    0.08741051359920
H         4.11051255627769   -1.25018007917169    0.79538430463989
H         3.74375637828640    0.29353970652942    1.64378412714133
H        -0.20113224522015   -2.57119193566433    0.89529414850976
H         1.17044990682279    3.43808628239756    0.77177422875844
H         1.79472885225875   -0.09046781976068   -2.16565992229483
H         3.00871132832367    1.87780275766865   -2.22019036533176
H         5.46392441320667    1.82892457108614   -2.63209471322384
H         5.33465963111323   -4.88816472068878   -2.46639624669251
