26
 energy: -46.149937132297 gnorm: 0.226545499997 xtb: 6.4.1 (79825abcba525fcdf90b791dcacef51065a7a4e7)
C         3.85526754755187    0.11252525893286    0.92184899680091
C         2.57280863547782    0.10363557796950    0.06102450056845
C         1.58977354566005   -1.01352649371669    0.37087666081923
C         0.50088418055210   -1.73047320436150    0.38942758062182
C         1.87723492645618    1.39819792368703    0.30025803227061
C         1.26902378303386    2.38885387029390    0.59248929952512
C         2.89592375856540   -0.07763208112949   -1.48643771304480
N         3.75617091878413    1.03799351581455   -1.91781021635948
C         5.00442282871829    0.76585648514351   -2.39333309261896
N         5.61802623984477   -0.35739587777003   -2.53798974989977
C         4.83459325577915   -1.47220565162199   -2.31480923604308
C         3.56647737365551   -1.40143196385806   -1.86957227047318
S         2.54354359160275   -2.80303613055131   -1.71902675718887
N         3.49693642341713   -3.99003882083741   -2.38025799719945
C         4.75175460503782   -3.94645106832348   -2.68126548175353
C         5.60251208667890   -2.74680692045404   -2.43451187853115
O         6.82140796033360   -2.80445896147076   -2.54232233148956
H         3.87770731896454    1.08315043133461    1.43359619486702
H         4.73210100917681   -0.10071780662444    0.30059191271204
H         3.88703143152512   -0.68359165954378    1.67446364178795
H        -0.27237117053867   -2.46109789092806    0.45967968676048
H         0.88882961837910    3.35234670795880    0.85554852813861
H         1.92791257335590    0.00073166586214   -2.00225961886969
H         3.43119514002732    1.98371611596990   -1.73983148148261
H         5.58716181912595    1.67079608422673   -2.63848009584692
H         5.31605499990754   -4.78615610348092   -3.11626080729889
