26
 energy: -46.147887159139 gnorm: 0.219780993441 xtb: 6.4.1 (79825abcba525fcdf90b791dcacef51065a7a4e7)
C         3.92907524081372   -0.46797834123554    0.76730549045244
C         2.64393456127035   -0.06813235439415    0.00945635002912
C         1.41839739261263   -0.89977449846985    0.35128589835546
C         0.16971261321031   -1.19052838919051    0.58853107173396
C         2.29787371983279    1.34031442998856    0.34630451704428
C         2.06943118349732    2.51127448002717    0.46200103001219
C         2.73249997534135   -0.14187613295013   -1.57755930034166
N         3.39968608503658    0.97840966864516   -2.26352598642696
C         4.74343355662685    0.89604834586325   -2.47770520916076
N         5.45897214055202   -0.17405013873515   -2.43271269882422
C         4.79113959426307   -1.36888745238315   -2.25176772523105
C         3.50007314617274   -1.43411857228034   -1.87726127903880
S         2.53208672377924   -2.88054953297860   -1.94352940546538
N         3.66528924935135   -4.09174312965483   -2.00694970642537
C         4.94107426399047   -3.89313669079712   -2.00548832413062
C         5.62783108840576   -2.60404717744074   -2.30621242606333
O         6.80876315475206   -2.55188812534838   -2.62766674563497
H         3.55216829964935   -0.95519987239194    1.67563269005111
H         4.49425080810773    0.45774122973913    0.92186856893256
H         4.56126000219124   -1.20153520755777    0.25400572811306
H        -0.70501589151116   -1.70039958336210    0.92252664017532
H         1.84002964521185    3.51638095878901    0.74342972371451
H         1.72889618241555   -0.18250729664390   -2.02520570581844
H         2.76203210677608    1.70510708265077   -2.57495044367987
H         5.23856791319151    1.79673105549666   -2.88045833793251
H         5.62872574134838   -4.73991162390446   -1.85426640640057
