26
 energy: -46.150773941140 gnorm: 0.227226909915 xtb: 6.4.1 (79825abcba525fcdf90b791dcacef51065a7a4e7)
C         3.88519331686878    0.16979281173288    0.95117118594998
C         2.58187595304994    0.05152664870870    0.13069836720206
C         1.61876675415888   -1.08337134271221    0.43866692424528
C         0.77485754063882   -1.97763286972166    0.87242988829943
C         1.89715658295633    1.36878337179512    0.24445791469231
C         1.43508333050832    2.44612129047539   -0.00564292022643
C         2.83084801637829   -0.12754411041834   -1.43066232492677
N         3.68409501061745    0.97464028260272   -1.90803745058285
C         5.04046956452577    0.83988125990001   -1.92807419542297
N         5.59932604138222   -0.32062080910393   -1.93477811333282
C         4.85641398276577   -1.48406570907724   -1.96402253588245
C         3.51827457801997   -1.43863985379396   -1.82733981250927
S         2.46197609665630   -2.79732533949633   -2.09521844867218
N         3.48004785242299   -4.04408509413001   -2.50053318976560
C         4.74694891849255   -3.91420786851868   -2.71306001344782
C         5.53876554851255   -2.65689484123323   -2.58652120640917
O         6.72397684460064   -2.60728815134296   -2.89224551524485
H         4.66375442669543   -0.55329225269034    0.67641212072545
H         3.51623781820269    0.00865470200858    1.97008052435891
H         4.25021039992450    1.19779221612953    0.84524833938973
H         0.14476284441052   -2.79327982731677    1.14514279799087
H         0.91867783032328    3.37866432862045    0.07021911494333
H         1.85553694434153   -0.09727491417330   -1.93772331982484
H         3.31432077545185    1.91891572646832   -1.96537698845131
H         5.57731559884123    1.79679434996983   -2.04936364006637
H         5.34236701771205   -4.78902868999273   -3.01789804596956
