26
 energy: -46.154783012879 gnorm: 0.218744079956 xtb: 6.4.1 (79825abcba525fcdf90b791dcacef51065a7a4e7)
C         3.60296702833927   -0.02001807184432    1.03277567893024
C         2.44196049341001    0.04578528023604    0.01614770807664
C         1.38352436423090   -1.00572374837059    0.30676624811199
C         0.62769777332496   -1.98386491664312    0.72149841538613
C         1.82117773655852    1.39686597029367    0.09461336497080
C         1.42832042503003    2.52905055672898    0.07136900093745
C         2.92859859104135   -0.05146797973734   -1.49568091963628
N         3.81799746197771    1.09288462478554   -1.76054813283584
C         5.04932056917503    0.85249601359659   -2.29381177778729
N         5.61925693124268   -0.25752947516955   -2.61341546463821
C         4.87358051685493   -1.39482718861837   -2.37488203048213
C         3.66558141669788   -1.36432534107820   -1.78228557099144
S         2.67326391558324   -2.78642206185018   -1.61950164852128
N         3.54223716019865   -4.07964160723669   -2.19189026972653
C         4.76229186861715   -3.96331844345225   -2.59810386828808
C         5.55940665391029   -2.70300625826666   -2.59155335051435
O         6.76282602607745   -2.73777013141555   -2.81788779764457
H         4.18234858898855    0.91175604196754    1.05759434136988
H         4.29420259664171   -0.85645391766252    0.88165205863684
H         3.19348053496575   -0.16050060184329    2.03966463315057
H        -0.19864477378719   -2.61541498245664    0.95596403901312
H         0.82258902068578    3.40795117068189    0.01950975125418
H         2.03096213716704   -0.02966606842371   -2.13052911918811
H         3.47231191955985    2.04731990588932   -1.72545226209624
H         5.69601876071680    1.73117671985595   -2.46203521124033
H         5.22659515569173   -4.87626578137342   -3.00271482181138
