26
 energy: -46.151987759579 gnorm: 0.223254033150 xtb: 6.4.1 (79825abcba525fcdf90b791dcacef51065a7a4e7)
C         3.94087745966892   -0.11818939344171    0.85454595031065
C         2.66456369132957    0.00286535650130   -0.00694555141272
C         1.69550398303388   -1.07160906482169    0.45872110968655
C         0.71173465642365   -1.81270919356216    0.88651227407698
C         1.98177852640763    1.29783940637450    0.26470452799184
C         1.33949408511218    2.21056091699542    0.70188784844901
C         2.83786054456995   -0.04003618134996   -1.58809332761400
N         3.63219948849722    1.08953680346846   -2.10172587076923
C         4.97788496645180    0.91095798824257   -2.22643993044867
N         5.58727057324406   -0.22378638390482   -2.21482307251553
C         4.79697014015533   -1.35595182983377   -2.21276751319708
C         3.45627593239308   -1.34744469385784   -2.09516900560174
S         2.43331112118716   -2.73423626794345   -2.34796104110415
N         3.49185651041619   -4.01247179826062   -2.32047261206298
C         4.77392255475010   -3.86308965845617   -2.28782771327430
C         5.59116792069640   -2.61598870471374   -2.31372979900573
O         6.79915693445754   -2.68774886841608   -2.50416879386494
H         4.13152754965185   -1.19497283558633    0.94777644235747
H         3.58363260776556    0.26118364461782    1.81824824193671
H         4.79057826441164    0.43952642596297    0.44442218515897
H         0.17018467537875   -2.70534432029356    1.10237745882111
H         0.83542046880668    3.11942729076235    0.95076113720557
H         1.86911391632418    0.06688198713934   -2.09736461010994
H         3.16879837150264    1.98962449502334   -2.18405735201906
H         5.61487750267516    1.80420384754709   -2.34870930940151
H         5.40045319962376   -4.75897881753478   -2.15515376441660
