26
 energy: -46.149937596807 gnorm: 0.225732225109 xtb: 6.4.1 (79825abcba525fcdf90b791dcacef51065a7a4e7)
C         3.65355650613000   -0.34419958875579    0.87069304735036
C         2.44658885655334    0.01168066169402   -0.02506195324479
C         1.26815453730019   -0.89547240065786    0.28923613108185
C         0.24857271716672   -1.70555930097116    0.22405272816508
C         2.06087082826722    1.42503999546972    0.24061473203269
C         1.97815500531226    2.60848668409225    0.41187805013002
C         2.75464030668177   -0.17678705332513   -1.57473444803159
N         3.52708637071157    0.99143153016078   -2.03224979619421
C         4.87638705746226    0.92070784796543   -2.21307902783811
N         5.54618546527693   -0.17921025892800   -2.18698672093166
C         4.84220327832321   -1.36241067030909   -2.29102257569499
C         3.53692517381510   -1.43377312890146   -1.97083637695101
S         2.63734866819022   -2.90175565832184   -1.70750940374638
N         3.83000446338302   -4.05055139445140   -1.82152931370860
C         5.08896958664360   -3.81948093422805   -1.99090263837987
C         5.63506222415794   -2.58338710315119   -2.62151866389184
O         6.60606574625982   -2.56203929785710   -3.36807771809148
H         4.58354355880680    0.04972886972846    0.44122080260604
H         3.73403075685254   -1.40416658308128    1.13576614947952
H         3.45115590409299    0.18930550054831    1.80645274598814
H        -0.41578402337819   -2.53254320056436    0.33082055947608
H         1.68173374122828    3.63324889270636    0.47562010933145
H         1.79151769642240   -0.13660440334949   -2.10392151587917
H         3.10375025710056    1.89712211926965   -1.85283961429060
H         5.48095058534454    1.83905048163116   -2.31180695988694
H         5.75313280267201   -4.69687864306798   -1.94823070940619
