26
 energy: -46.155435733730 gnorm: 0.227638154297 xtb: 6.4.1 (79825abcba525fcdf90b791dcacef51065a7a4e7)
C         3.73922417765115   -0.16766217542593    0.96627940489475
C         2.55262661753239    0.05592881681240    0.00305980971522
C         1.47716941865824   -0.97866438722297    0.29189564418599
C         0.54372787922839   -1.72509890797413    0.81300902592559
C         1.98915969409688    1.41320090140846    0.24236011455350
C         1.34204893315777    2.41962255919172    0.31364977761162
C         2.86793111491445   -0.05073262108354   -1.55293088572037
N         3.80287284972463    1.01889655754152   -1.94345008327417
C         5.12518310303120    0.83150091764718   -2.21674819113801
N         5.70853470212959   -0.31689323195150   -2.21202109527297
C         4.87571196494619   -1.41653530996102   -2.15226173969092
C         3.56473551791495   -1.38314246711658   -1.84962597751831
S         2.50953725141813   -2.75867937827221   -2.01697745214496
N         3.54070348394665   -4.05016696956502   -2.17162552598487
C         4.82102566179524   -3.94678460787813   -2.30262653020800
C         5.57333510339807   -2.68008828655828   -2.53356510096626
O         6.65447258881032   -2.63459991803240   -3.10778329720094
H         4.33888835542472   -1.07519571734962    0.82037635083063
H         3.32586056325396   -0.09211912551371    1.97805687993598
H         4.39926419327524    0.67994633796977    0.74914607189227
H        -0.18456242593434   -2.45273527633466    1.09015550137437
H         0.97738652918410    3.38608365054511    0.58758498094625
H         1.90907763729241    0.04033693884229   -2.08355796896064
H         3.32165695615873    1.91210466863880   -1.89562273375598
H         5.79384194030169    1.69090404580474   -2.39818434254102
H         5.34678898699283   -4.90252178362671   -2.45395327364552
