26
 energy: -46.156979279037 gnorm: 0.217990306240 xtb: 6.4.1 (79825abcba525fcdf90b791dcacef51065a7a4e7)
C         3.83897309370710   -0.10292747332335    0.78884642746640
C         2.53588020261729    0.05153859894427   -0.02594670112247
C         1.59031399989481   -1.02598941837565    0.47928131946274
C         0.53308884454297   -1.66244947358292    0.90026864837419
C         1.88027062497061    1.36890066884913    0.20138648023770
C         1.31476567374763    2.42075414926139    0.30399012628742
C         2.81837128627337   -0.07103957247856   -1.58705976747608
N         3.64347839758994    1.06264267732429   -2.03948731219018
C         4.96714394169217    0.85596052120378   -2.29149010274785
N         5.58275178850998   -0.27521225244517   -2.31610087664671
C         4.87364541711077   -1.45670233143285   -2.22876850492097
C         3.56116171311581   -1.36264052945294   -1.94609973321547
S         2.52577734521403   -2.76259455039662   -1.98683849816798
N         3.56286089886297   -4.01281396049977   -2.32826075138458
C         4.84976521653810   -3.94690425407594   -2.40954570694457
C         5.67262371646518   -2.70326909016573   -2.41940271768224
O         6.89469466431467   -2.75340735180243   -2.48783325051761
H         4.40810441799952    0.82943869775973    0.89507644532321
H         4.49405714957861   -0.88426965265978    0.38804826667275
H         3.63856464627634   -0.44814697785047    1.80958137996833
H        -0.07181625619483   -2.38413420299970    1.40020124021284
H         0.80336614089587    3.35383133989199    0.40350734486106
H         1.84396280282702   -0.02761702266452   -2.09489965548015
H         3.25559730377593    2.00103229899585   -2.01399037797478
H         5.45510504042976    1.77549744559840   -2.65883635412243
H         5.33895839060890   -4.93321261862429   -2.43496726809519
