26
 energy: -46.156764139108 gnorm: 0.221056244771 xtb: 6.4.1 (79825abcba525fcdf90b791dcacef51065a7a4e7)
C         3.81806875887695   -0.13960416656586    0.83313905085568
C         2.49817636030967    0.03126450319085    0.04924706397020
C         1.39265453738867   -0.89496627012692    0.52917984190854
C         0.26256852215674   -1.47401671174469    0.82522534640464
C         2.03011499397300    1.41731083077886    0.32626917799973
C         1.69158338669161    2.56404218392028    0.41066501694075
C         2.76519589683307   -0.20529174552595   -1.50144385682149
N         3.50752795743236    0.94683420528838   -2.04207015201334
C         4.83481128168925    0.86811437980255   -2.34279521912389
N         5.52381788336189   -0.21987160250305   -2.36900531058313
C         4.87194998999221   -1.42751187666181   -2.21718031854817
C         3.55788638951748   -1.44605722633558   -1.92691202706805
S         2.65264240109514   -2.93351393371322   -1.88744586573280
N         3.65508530085264   -4.16670060970126   -2.36652715688928
C         4.90641204064358   -3.93073867520125   -2.58001583861934
C         5.66601306564434   -2.64787411987945   -2.54705342330120
O         6.88593920877769   -2.59721448783423   -2.64639025910659
H         4.41606836834338    0.75941176984488    0.63649527371426
H         4.37652825316371   -1.02887406061999    0.52074196975485
H         3.59134145663515   -0.14936133475914    1.90539807968794
H        -0.53294182708418   -2.05696485609750    1.23020234263791
H         1.30541464352515    3.53667652807710    0.62728066267925
H         1.80245428858293   -0.16531527288066   -2.03133935890443
H         3.01924890252861    1.83748252062079   -2.04453345763205
H         5.41297950233986    1.78918395839091   -2.53239954322206
H         5.57441594874652   -4.79310069353633   -2.73122080683386
