26
 energy: -46.150557164894 gnorm: 0.222539106460 xtb: 6.4.1 (79825abcba525fcdf90b791dcacef51065a7a4e7)
C         3.74305771408527   -0.25013923259037    0.83662375733102
C         2.51876391828679    0.05376406829379   -0.05474944585947
C         1.50595772913825   -1.03988899697927    0.24284767733605
C         0.92290195063708   -2.03958981738363    0.84341491477162
C         1.82365668551175    1.32138874201346    0.30148187635508
C         1.31438420598423    2.36682190062407    0.59205056804560
C         2.86434182635999    0.07353892246865   -1.60783846761441
N         3.80952206135155    1.14743691492152   -1.96012428477106
C         5.11519835764129    0.90819426190446   -2.27042374459208
N         5.58307765660585   -0.28155777587883   -2.42761664044105
C         4.76123312853164   -1.38643171815896   -2.32660799727147
C         3.47955310074923   -1.29350160169149   -1.92657919347095
S         2.50916164032351   -2.73627341691552   -1.82508239220370
N         3.47111634278507   -3.96673691082341   -2.38701011558881
C         4.71174775572487   -3.85726979045961   -2.72748729006551
C         5.54810322985988   -2.63651290402582   -2.54286918117446
O         6.76672159238011   -2.70330619633851   -2.43721912209365
H         4.63150098729549    0.29444501583296    0.49224241443596
H         4.06698044744404   -1.29201467162365    0.93581810286740
H         3.46283990856153    0.14745445534355    1.81878318450953
H         0.44137141518513   -2.95230917466223    1.11126440707232
H         1.02499601480375    3.29873232465026    1.02778402432548
H         1.93854141260368    0.21896919489924   -2.18316654061062
H         3.42796097555888    2.08871652195806   -1.96911089661734
H         5.66392643076807    1.83422075640022   -2.51531124750063
H         5.27319111125635   -4.76827384583745   -2.98751302036133
