26
 energy: -46.151134579680 gnorm: 0.219463882783 xtb: 6.4.1 (79825abcba525fcdf90b791dcacef51065a7a4e7)
C         3.73457779024561   -0.01773081368859    0.89370510415536
C         2.50340964371840    0.03644959472774   -0.03747059020736
C         1.58218225702812   -1.09525032589699    0.38798541009816
C         0.71226318539264   -1.80258559745286    1.05353358971339
C         1.89537153240233    1.37637788014493    0.19018916784717
C         1.29934086882817    2.41569959614138    0.22592324102971
C         2.83690410594284   -0.05667647183922   -1.59053517554172
N         3.70234699380692    1.09019637380563   -1.91675467533200
C         4.96731205007821    0.82299288602352   -2.34893415053319
N         5.62564376776928   -0.28147360630468   -2.42563927000754
C         4.90553923595234   -1.44707071139276   -2.25472861877056
C         3.58807088943560   -1.32569473060966   -2.00793363524682
S         2.53687520445892   -2.71216630017709   -1.92896577914417
N         3.50268497293810   -4.02195804024818   -2.25579465582501
C         4.77474460505761   -3.95050742968466   -2.46515835543703
C         5.63814150947294   -2.73494697222630   -2.43722535910099
O         6.85844109636712   -2.83482375344557   -2.47656406924367
H         4.29563854132993    0.92533797372648    0.87542791384664
H         4.49593145053463   -0.77415092363318    0.67361624326845
H         3.33860439233911   -0.22685158725575    1.89406177499366
H         0.14791295514954   -2.61317483073305    1.45493804304624
H         0.86156160605772    3.38568484212757    0.32361737718225
H         1.91315961347889   -0.02811527904529   -2.18647068759243
H         3.30831046950338    1.99492605662968   -2.15732969356701
H         5.42005311430213    1.77552531935968   -2.67497855391191
H         5.28959098183705   -4.84497919313156   -2.84936387690753
