26
 energy: -46.151201817442 gnorm: 0.221672643744 xtb: 6.4.1 (79825abcba525fcdf90b791dcacef51065a7a4e7)
C         3.76531770755664    0.16060014933519    0.84050317207532
C         2.48729711473047    0.12564588710846   -0.02623799524178
C         1.66925673903739   -1.06093244237508    0.45673116439454
C         0.87032013440828   -1.98975791948761    0.90284805108032
C         1.76885941952569    1.42469240442085    0.08896845077547
C         1.14391983513973    2.44657443531901    0.13286290491571
C         2.85101207765196   -0.02184621100685   -1.56826851789817
N         3.83810033563293    0.98860958201572   -1.98703305799884
C         5.18591507841859    0.78461722733507   -1.97723846300909
N         5.70538553580839   -0.39402427926161   -1.96800787669266
C         4.87049245967558   -1.48980651110586   -2.06070338498043
C         3.54924611858236   -1.35872220481269   -1.84050401796275
S         2.46665223446675   -2.70627387404317   -2.05415488209590
N         3.45692327660447   -4.02729068014561   -2.22572961664807
C         4.74315378511270   -3.96288111433434   -2.31812305308312
C         5.55995401812789   -2.73167573332463   -2.52009431476034
O         6.67820599166745   -2.72591566016742   -3.02022763598388
H         4.34830875427642    1.02963049487224    0.50973186284806
H         4.24949080181316   -0.81877285597715    0.75880359922344
H         3.37539449710099    0.27866137305286    1.85798110122147
H         0.58086815570945   -2.91356958408161    1.34945881776406
H         0.68719570948537    3.39981983982799    0.29031914981840
H         1.92164168431668   -0.02020660747537   -2.15608374775953
H         3.46230441709073    1.79241736278382   -2.48134814283278
H         5.74557633492505    1.71888038926997   -2.15759666025027
H         5.30873353224685   -4.90363211459818   -2.40682207725674
