26
 energy: -46.156236429497 gnorm: 0.221135039556 xtb: 6.4.1 (79825abcba525fcdf90b791dcacef51065a7a4e7)
C         3.68927805589165   -0.46709415343574    0.66698175339930
C         2.44602381215491   -0.00748400327693   -0.12603533174765
C         1.37460815407234   -1.01668964698500    0.25342466450556
C         0.53022926670136   -1.88409181218561    0.73785684889412
C         1.92207466095668    1.33781377679027    0.23810515092926
C         1.55808123531857    2.36155576338810    0.74424765702899
C         2.79822218643580   -0.02401036975402   -1.67767440983159
N         3.68646931694064    1.11247669431675   -1.97791110134653
C         4.97151633186039    0.97849698656551   -2.41267195856265
N         5.53163769286662   -0.15380849713969   -2.66422496062558
C         4.84906244490478   -1.31557683061259   -2.36295602136272
C         3.54329431374167   -1.31425250674453   -2.03687230544266
S         2.60065458297880   -2.75016493102865   -1.74853646169792
N         3.61695520403277   -4.00595476908330   -2.12969910375671
C         4.87739469288315   -3.85662819072694   -2.36648577686421
C         5.64359086223243   -2.57827598771799   -2.41728713930468
O         6.86125738810340   -2.56659581358359   -2.55072552618770
H         3.71503767593374   -1.55661552970515    0.79652546616975
H         3.72556467147365   -0.07209739617442    1.68822155473854
H         4.62535840619106   -0.12206401827307    0.21316716507708
H        -0.33344067742313   -2.41416704526547    1.06916652243404
H         1.27678687729319    3.27811452806691    1.21632786133763
H         1.84758860485061   -0.01882350339494   -2.23041997165979
H         3.35533542814085    2.01100173172612   -1.63926670193681
H         5.54683219568186    1.90623072343139   -2.57674275745004
H         5.47788142467470   -4.74484179928861   -2.61798663922806
