26
 energy: -46.152261290110 gnorm: 0.223836055991 xtb: 6.4.1 (79825abcba525fcdf90b791dcacef51065a7a4e7)
C         3.90268683706725    0.08919283153950    0.83386661731448
C         2.57191497964685    0.06602913424247    0.05008834360078
C         1.70011857022415   -1.09311412214390    0.50481389914439
C         0.89438260514854   -2.10504836683440    0.66856792475068
C         1.86074255646313    1.36599616595350    0.19591906633684
C         1.35282607891331    2.44807188110110    0.10730704544516
C         2.84517183613798   -0.06441700001128   -1.51203044845942
N         3.67058898874986    1.07181000044431   -1.95745452303895
C         5.00296270336683    0.85564752824226   -2.14815707829846
N         5.61940566343760   -0.26681759450703   -2.28672360434386
C         4.86753917878423   -1.41671734727384   -2.14959249594916
C         3.54507587855856   -1.37030710839113   -1.90403262948992
S         2.49324956774529   -2.75324981674907   -1.78286095544970
N         3.38339587953242   -3.98448047295411   -2.45134479293098
C         4.64580364251813   -3.91954394313436   -2.71437320267203
C         5.50673863164387   -2.72454926391670   -2.48070601384759
O         6.72793982021570   -2.81997438246273   -2.49539273273308
H         4.36048956346742    1.08651851431975    0.84999431317533
H         4.66669785274019   -0.48725713807650    0.30070389782054
H         3.80278302377567   -0.22828893281451    1.87811967426172
H         0.13106819019329   -2.82304357144019    0.86479637319117
H         0.90451613017299    3.41273969433914    0.20977849047525
H         1.86672275831054    0.03654873799449   -2.00366250890790
H         3.22085538017320    1.95118922756933   -1.72058160506669
H         5.57358201046238    1.79864946498968   -2.08701452111201
H         5.19149716126280   -4.73139650120171   -3.22021350988359
