26
 energy: -46.147719548192 gnorm: 0.218861671994 xtb: 6.4.1 (79825abcba525fcdf90b791dcacef51065a7a4e7)
C         3.78972277710645   -0.21532539603680    0.99919771640685
C         2.56267311447730    0.04322061722967    0.09736526209669
C         1.54277211582210   -1.05205148792851    0.36306889939830
C         0.37515466899975   -1.62084705270387    0.24827392261774
C         1.86808058375258    1.32597757670540    0.39573234388699
C         1.41893675939097    2.38270747566187    0.73969578296518
C         2.85334406211775   -0.07432448100450   -1.46263287231150
N         3.62954737576614    1.03296192467169   -2.04757141924150
C         4.96880881032227    0.88925182891594   -2.25742758925064
N         5.63100464546720   -0.21551294208177   -2.26847462774459
C         4.85494715473484   -1.35744934262610   -2.25879855299659
C         3.58140765985493   -1.37368557772486   -1.82383156398009
S         2.58753445560831   -2.79579321879186   -1.97672895351822
N         3.62663973669732   -4.07601587173170   -2.16764830965265
C         4.85076331043259   -3.89653223667511   -2.53694650688115
C         5.59882304587922   -2.60772701176611   -2.59359824199896
O         6.79097848083506   -2.65332824651666   -2.87169883085228
H         4.67249066378377   -0.36287429694155    0.36401889000249
H         3.76630758569225   -1.14279311696159    1.58188566029082
H         3.97615718046980    0.73316853880434    1.51576462030752
H        -0.32235369410689   -2.40829886519929    0.42169065505916
H         1.01291265666042    3.26438887842788    1.18674000274777
H         1.88131043366712   -0.08765992733295   -1.97666745936356
H         3.23405373175995    1.96746310256694   -2.09194760881965
H         5.52613567738843    1.83928664116283   -2.33103517278462
H         5.50732760632111   -4.77239742705178   -2.65754461822362
