26
 energy: -46.153992790196 gnorm: 0.210561694982 xtb: 6.4.1 (79825abcba525fcdf90b791dcacef51065a7a4e7)
C         3.84252090178859   -0.17251761657253    0.82839896957635
C         2.57826144980975    0.05636828495847   -0.02895626085394
C         1.58445284766114   -1.04693162697020    0.29583787979902
C         0.82417437618376   -1.65509399760000    1.16310483275621
C         1.83947125386845    1.31626202204028    0.26053288220256
C         1.05655941542896    2.21075684602107    0.41430929003245
C         2.92031763949568    0.02251680901033   -1.58258179316303
N         3.83905177140199    1.09837062361562   -1.99391383734319
C         5.15547363984907    0.84550641071959   -2.24171729477626
N         5.67605090018746   -0.31600457180286   -2.43925745933690
C         4.85398966813542   -1.41176068594802   -2.26630811161899
C         3.53661073384535   -1.31448370867352   -2.00860152358215
S         2.48939330948124   -2.70100884058979   -1.88845397347325
N         3.43301638240089   -3.93121362307731   -2.48118639014839
C         4.70580320575587   -3.87159099257863   -2.68983179391612
C         5.59257702631747   -2.69327243536056   -2.46842883547010
O         6.81548687109311   -2.75162570977213   -2.42671070581308
H         4.68763731780641    0.47847868299503    0.57055401104762
H         4.09225015590797   -1.23920816837216    0.81965495237823
H         3.54308207831801   -0.05372461802852    1.87599837520897
H         0.12880055120441   -2.38154132692238    1.51722509589653
H         0.22198962108656    2.85340654541933    0.59475550138942
H         1.98951971688761    0.10467430640654   -2.16234393794741
H         3.51104152870963    2.05593918426683   -1.90936411294852
H         5.73993714287188    1.74486619651378   -2.50277638852624
H         5.14048733775112   -4.81065434427742   -3.06662104083153
