26
 energy: -46.152264906384 gnorm: 0.220909449176 xtb: 6.4.1 (79825abcba525fcdf90b791dcacef51065a7a4e7)
C         3.54910270944221   -0.25571762616377    1.04483886836265
C         2.44287664793470   -0.03914373453205   -0.01117170754984
C         1.34554760449539   -1.04722130925191    0.28893823830761
C         0.35794347914236   -1.83931170638964    0.60081584385585
C         1.86644177901382    1.32166070184594    0.17016015638149
C         1.54279603807168    2.47430162280861    0.22839626908722
C         2.95149366725072   -0.02656896944820   -1.51883586835679
N         3.84310982387924    1.10704224903828   -1.81995727528252
C         5.16244259143692    0.91170334327674   -2.10194512862654
N         5.63857357907456   -0.24543381393965   -2.40766303179419
C         4.86858001376418   -1.39012156850077   -2.35129414507975
C         3.61459163526940   -1.36469837455821   -1.86320650150372
S         2.70569512839399   -2.79359927675093   -1.45614256417916
N         3.74841228166281   -4.02864242757542   -1.83372617364685
C         4.88584827762655   -3.87269706979712   -2.42448370295924
C         5.54112562820981   -2.61323083796430   -2.88074908881921
O         6.42205578608145   -2.56650888543768   -3.73070973852143
H         4.37159348305017    0.45863073836705    0.91173252036458
H         3.97396086182616   -1.26172561012843    0.95701305691420
H         3.11729687498955   -0.26521747105104    2.05215876250099
H        -0.44324782846954   -2.54012084356976    0.66107079263513
H         1.22659387165203    3.49361091824561    0.17279992445439
H         2.09135300793480    0.05845164544521   -2.19868019238219
H         3.32019716551171    1.97505064534252   -1.88924432892825
H         5.85130960496009    1.77226026593622   -2.16111838536778
H         5.48328182138860   -4.79275101739644   -2.52109791868531
