26
 energy: -46.153956713933 gnorm: 0.221066539052 xtb: 6.4.1 (79825abcba525fcdf90b791dcacef51065a7a4e7)
C         3.96087707959903   -0.19369994285866    0.78881256703838
C         2.64625810706058    0.00210036506040    0.00189585073673
C         1.64839090018228   -1.04760323230283    0.46319929607452
C         0.49259806984789   -1.63975887137857    0.57952395166738
C         1.99024802152669    1.28248764402104    0.38557063844965
C         1.47860488567448    2.36589415369345    0.41978707896074
C         2.78339057041184   -0.11467213756410   -1.57907206193584
N         3.56596244748291    0.99996769578457   -2.14111048336076
C         4.91290114104965    0.94185097761930   -2.34283306302104
N         5.56502397512857   -0.16846685925352   -2.31026518701287
C         4.88483719143999   -1.35651859606477   -2.13066396282144
C         3.56556017992104   -1.40057382759631   -1.86811864324751
S         2.50117090140265   -2.77920286078682   -1.86509356636435
N         3.51404677625757   -4.01695999782369   -2.30916536227900
C         4.76621439933582   -3.82273068716615   -2.55700659071747
C         5.63490959528255   -2.62694611311318   -2.35879053772677
O         6.84891786231138   -2.74680663965163   -2.47046582471882
H         4.69134847976613    0.46550166521136    0.30263693968527
H         4.19999464626876   -1.26061992768914    0.85790980769546
H         3.82054486232298    0.22397471460586    1.79235362318323
H        -0.14568793007065   -2.41612275964166    0.93522289244755
H         1.06272733956606    3.31490211569462    0.68150443003636
H         1.74252905560342   -0.13089512589397   -1.93347704743600
H         2.96208052256694    1.81156409626007   -2.23229616094071
H         5.44362843471125    1.86752473845852   -2.62577136828312
H         5.28628704811300   -4.70033863739696   -2.97184286690790
