26
 energy: -46.151860911118 gnorm: 0.217991938091 xtb: 6.4.1 (79825abcba525fcdf90b791dcacef51065a7a4e7)
C         3.74097010790746   -0.19755985789208    1.04567008302185
C         2.53146983095794    0.01629008309228    0.10909335523094
C         1.51665032176164   -1.07766535872225    0.39861068561447
C         0.39844389309042   -1.74194836391951    0.49014886007269
C         1.80841373207118    1.31659410134225    0.16694193822934
C         1.33499570617688    2.41597830472299    0.22978181529328
C         2.88944712074799   -0.05105926401230   -1.43984723491025
N         3.71992385602269    1.06687610981118   -1.92073886646242
C         5.06292367096505    0.87211994320515   -2.05010240516016
N         5.65253968480410   -0.25445815472860   -2.25578493268466
C         4.86425165454136   -1.38777015096918   -2.23162929672574
C         3.56368550170208   -1.35267112088333   -1.88716090649271
S         2.70563179420478   -2.84366756899332   -1.61471803517872
N         3.56225169820963   -4.03838442052992   -2.38544107788774
C         4.74883053178404   -3.84217360365876   -2.85512825076627
C         5.55745838850725   -2.59154814707350   -2.77845593944796
O         6.77034560755382   -2.56917874257431   -2.94892057873150
H         3.78833087756643   -1.24289094740129    1.37664112386461
H         3.62290477302741    0.50704732013066    1.87624770685487
H         4.63462725116180    0.06261618616276    0.46694283053439
H        -0.21678606101669   -2.50509210132492    0.90940459167755
H         0.85557085411125    3.36980348672228    0.18043065573078
H         1.95321159807190    0.00438032306327   -2.01399727056158
H         3.38077623316120    1.99443154109420   -1.68346954255307
H         5.74439389047662    1.74055457704614   -2.05423568535300
H         5.20508365912987   -4.77347975295370   -3.22561758430325
