26
 energy: -46.151317240764 gnorm: 0.230389955180 xtb: 6.4.1 (79825abcba525fcdf90b791dcacef51065a7a4e7)
C         3.78506168745989   -0.04484375968567    0.77180515474991
C         2.49613430163668    0.00884151043102   -0.07765513111034
C         1.47137954028380   -1.05703197095871    0.27477758700156
C         0.60107531230379   -1.96520010045959    0.61805291731261
C         1.85972988281280    1.33415245316453    0.15790260786902
C         1.64580174743581    2.46344778653737    0.49797012097953
C         2.79698084695478   -0.09502845899049   -1.63669426631469
N         3.61662776102174    1.06401245915425   -2.03106840878944
C         4.89273627702935    0.84450376450967   -2.45730353297733
N         5.61416862978095   -0.22244116332607   -2.44014427645168
C         4.90466457208244   -1.37119167692032   -2.15143362072168
C         3.57616105876971   -1.38036833708089   -1.93612699943071
S         2.53579314489507   -2.76109581023252   -1.72451899835329
N         3.53233131313046   -3.96239107629520   -2.28928566849710
C         4.78270407008288   -3.84860584399483   -2.59044168781374
C         5.64262235933935   -2.64766426674972   -2.38525504122965
O         6.85192223974127   -2.74983066458052   -2.21849228226239
H         4.53723487156126    0.68245285292504    0.44047888411802
H         4.28777408896442   -1.01405866576640    0.68140275516879
H         3.49915226289769    0.17125994533104    1.80756327614667
H        -0.00880495586935   -2.75992913752307    0.98291376112597
H         1.20935611355007    3.40984340555246    0.73443734613361
H         1.87272764989331   -0.11203407284772   -2.23228271420567
H         3.19741317407726    1.98697089356613   -1.96716395599070
H         5.43031088718741    1.72132249638916   -2.85830217052372
H         5.26525069949704   -4.82288170244321   -2.76564360603863
