26
 energy: -46.149790086884 gnorm: 0.220554618932 xtb: 6.4.1 (79825abcba525fcdf90b791dcacef51065a7a4e7)
C         3.84016262548203    0.08305729914322    0.91808639555335
C         2.58851457230080    0.05035161694808    0.01359417041358
C         1.72248233566366   -1.16646553014338    0.29601520367926
C         0.66969461415400   -1.85598972963186    0.63694212504293
C         1.72011318135547    1.21436965190136    0.34205751360509
C         1.08405707785175    2.15700525592832    0.72099004224666
C         2.90433080200337    0.02851963023318   -1.54579164222067
N         3.81276364253401    1.08806456233315   -2.01785327535232
C         5.12949994891004    0.79231196684116   -2.21033521468049
N         5.71379164032865   -0.35391253092530   -2.27281066240610
C         4.88446095490168   -1.45553716429571   -2.20201950377556
C         3.58168650741883   -1.29918919116173   -1.90252528238706
S         2.50922394785479   -2.67118787548312   -1.93407482883773
N         3.38447522736149   -3.81340744427828   -2.76137748412820
C         4.67445819500382   -3.79640724449507   -2.81361726176606
C         5.63815743694076   -2.72263378800668   -2.43663446014532
O         6.84930382752145   -2.90107203534014   -2.39260952076191
H         4.63163528584503    0.69204866510826    0.46289137807917
H         4.23760948218129   -0.92974186925708    1.04670882499699
H         3.51321714133067    0.46484688398348    1.89203878765283
H        -0.00713772153337   -2.55034003003812    1.08016586081802
H         0.40699001888952    2.85878691597132    1.15819583660622
H         1.89166370987481    0.10460540609647   -1.96766257114812
H         3.55914105932825    2.07135169370439   -2.04018984143491
H         5.77300637108730    1.67336578110885   -2.37838616131211
H         5.04218594330723   -4.74787613452500   -3.22863974946357
