26
 energy: -46.155548827476 gnorm: 0.223988441374 xtb: 6.4.1 (79825abcba525fcdf90b791dcacef51065a7a4e7)
C         3.83267105709565   -0.40372304579109    0.80241914245397
C         2.54761934900696   -0.03282503216514    0.02984198613357
C         1.32903763498385   -0.90586794419164    0.28138146983143
C         0.20015378409865   -1.52632955031056    0.48308771259188
C         2.07387728667522    1.33279432543697    0.38705250728131
C         1.57144027362637    2.34312696916756    0.79140891690026
C         2.81629732833266   -0.07578468938455   -1.53791668685103
N         3.65090731816806    1.06783958290107   -1.94568815358131
C         4.95468723429795    0.94492438405773   -2.32432145843623
N         5.54650215629482   -0.17852218797630   -2.54054694100331
C         4.81752691257458   -1.32662822532646   -2.30216652374368
C         3.53321982048424   -1.38014670471609   -1.90335100491538
S         2.66285361320483   -2.87810389082919   -1.72407848980428
N         3.66253639941249   -4.07207908556288   -2.29872411000901
C         4.90596696746686   -3.88020724578148   -2.58879251661426
C         5.61138568111896   -2.56702759014367   -2.54677664524876
O         6.81461625849502   -2.50552721019893   -2.76837962658100
H         4.74927466918619   -0.04228491210360    0.31899153488164
H         3.93057957271596   -1.47797840475504    0.99388514961209
H         3.79877904457160   -0.03805659070911    1.83507555698131
H        -0.71306786999436   -2.00649715505372    0.75167085706262
H         1.12947791088472    3.19589689253283    1.25993739429320
H         1.84531416314369   -0.10851483179613   -2.05306637298027
H         3.18873451052710    1.96016107084098   -1.79791947615758
H         5.45244317120010    1.85399032065421   -2.70436830753248
H         5.48473637397515   -4.74072619221724   -2.95932392987242
