26
 energy: -46.149919417369 gnorm: 0.232028670906 xtb: 6.4.1 (79825abcba525fcdf90b791dcacef51065a7a4e7)
C         3.82683573106566   -0.22832679616632    0.81318672710941
C         2.58388234928769    0.08030798307031   -0.05030048212306
C         1.52290046483915   -0.95200098201758    0.29476921091982
C         0.36693557814518   -1.49542587456721    0.55643950872321
C         1.93597876465104    1.36875111420989    0.31994587901061
C         1.34628850278197    2.39355654249095    0.51681724874672
C         2.80694110114915   -0.07341954443518   -1.61826517579294
N         3.63001854646944    1.05297960486795   -2.09207563862723
C         4.94417965720842    0.88256689925659   -2.41184661855194
N         5.52149511509834   -0.26876943402133   -2.39565818725311
C         4.85781752012671   -1.45951602724854   -2.17649567997953
C         3.53647021773978   -1.38421354055896   -1.93209112536478
S         2.64143292505786   -2.84062705891265   -1.59844517907422
N         3.63553090250644   -4.04928744260625   -2.15168049618161
C         4.82524070995695   -3.86880174089499   -2.61975051772173
C         5.69139531140053   -2.66591391070643   -2.45647536809726
O         6.89538174247273   -2.75577899431239   -2.66382754197882
H         4.62562847852162    0.36815639126166    0.35423148158969
H         4.11551830458121   -1.27958884008653    0.92172414800207
H         3.64040971153423    0.16875079663709    1.81758436901676
H        -0.36761130578516   -2.20380467735979    0.86516589212719
H         0.76622321259810    3.28370422587155    0.63182840464765
H         1.87434456081087    0.04880057500640   -2.18798852687604
H         3.24833206758091    1.99408053770548   -2.11000291122635
H         5.57793611909869    1.76283872997162   -2.61696050604677
H         5.33634511050538   -4.78413422518512   -2.95694355845033
