26
 energy: -46.148422164225 gnorm: 0.228846663961 xtb: 6.4.1 (79825abcba525fcdf90b791dcacef51065a7a4e7)
C         4.01011389454232   -0.01420103560141    0.87873049782749
C         2.68619727754422    0.01868607115241    0.08377017142590
C         1.71098702879129   -1.09510781158414    0.42851005172317
C         0.88601141762782   -2.07336091051927    0.67845579355854
C         1.99679568246492    1.30494203415997    0.37909739891426
C         1.46508350308803    2.33839414918799    0.67231744526213
C         2.78244055978176    0.01549707230018   -1.50450804844977
N         3.61029519574134    1.08509385090758   -2.08875740694861
C         4.95017708556881    0.83958385124165   -2.14124322513378
N         5.53016846326568   -0.30933263008776   -2.08897961429670
C         4.74675855253613   -1.44598959119702   -2.06333825029640
C         3.41241708584689   -1.30659396304760   -1.95626599445194
S         2.40444699113523   -2.68059670558578   -2.31635551524987
N         3.46302350171855   -3.95238668357747   -2.44722205171816
C         4.75010888438500   -3.92177122301001   -2.54493577496724
C         5.54345887373703   -2.67200460599458   -2.36465571550102
O         6.76195077458758   -2.66251624102029   -2.49051854887754
H         4.67361510721236    0.81978976697834    0.61657130805793
H         4.48036513199557   -1.00313716162388    0.91247953508546
H         3.68203873220313    0.17008906622247    1.90812048507986
H         0.15447158021536   -2.80559035178557    0.93411402921945
H         1.00938047602766    3.29791003282583    0.78949350016672
H         1.75560505927504   -0.01087498468037   -1.89715564900724
H         3.17812043274064    1.94964449685021   -2.40093376081908
H         5.55606972785856    1.67259850509381   -2.53820437343086
H         5.31472943722427   -4.86712125625645   -2.52828172789654
