26
 energy: -46.148067174436 gnorm: 0.228807369623 xtb: 6.4.1 (79825abcba525fcdf90b791dcacef51065a7a4e7)
C         3.68204956289238   -0.00185322816846    1.08136258002136
C         2.58075787687661    0.11343001514735    0.00448510366067
C         1.43610825546285   -0.83847178155386    0.31120592835920
C         0.37395685652659   -1.54192567216835    0.58873755581052
C         1.91151369099530    1.43207720569785    0.17834988234424
C         1.15955813673113    2.35240318999646    0.02252288142589
C         2.98089544392380   -0.05977070770668   -1.52580639993588
N         3.90351320120480    1.03544048085124   -1.87224082699085
C         5.23409068841004    0.74038363033146   -1.90084864424900
N         5.72362356044811   -0.37664003561981   -2.31527145046685
C         4.86530029912271   -1.45781301853845   -2.34217433931480
C         3.62722606385614   -1.41881823041903   -1.81585281645019
S         2.64204776301819   -2.83374772846597   -1.56897241105490
N         3.64917732697903   -4.09050151228219   -1.97074348433700
C         4.81134661678886   -3.97522526297627   -2.52133224836912
C         5.47140821325011   -2.69676875913490   -2.91336458699255
O         6.47217380669877   -2.69414606549566   -3.61984554307840
H         4.53308021971572    0.64586024321273    0.83495632539360
H         4.06724658374423   -1.02577749034496    1.14028837621136
H         3.33318971207079    0.32798601463839    2.06662537519563
H        -0.26356425232995   -2.27358502608957    1.03022714434238
H         0.47054519546990    3.16869264232390    0.05412846821059
H         2.05225091817568    0.11137292912373   -2.08935583572753
H         3.47301490238682    1.93216903555680   -1.66675107053228
H         6.04098691453606    1.49332190774557   -1.92534133865759
H         5.41721253462408   -4.88982703989990   -2.61719928881033
