26
 energy: -46.152240551664 gnorm: 0.223197070157 xtb: 6.4.1 (79825abcba525fcdf90b791dcacef51065a7a4e7)
C         3.68182557154936   -0.27147532437352    0.85117152003427
C         2.44016849286470   -0.00593283645456   -0.02835879755588
C         1.37018637094179   -1.06499260898413    0.18127918315553
C         0.29414451119913   -1.74111959946991    0.47286616843158
C         1.87029359383097    1.32477481029303    0.32007608867599
C         1.66503209028344    2.46146405851939    0.64027035553367
C         2.84269762048605   -0.04332792038343   -1.56734305351978
N         3.72135832779922    1.08100959804711   -1.93415143171082
C         4.98685997377177    0.86614122100088   -2.39311827231171
N         5.54989220567236   -0.25185125658936   -2.69679258507823
C         4.79557388270045   -1.39502814187149   -2.52206969702659
C         3.58457198515034   -1.33210702082904   -1.93822203742013
S         2.65498128365562   -2.77341774734497   -1.63484730139495
N         3.73776477541792   -4.03050690162071   -1.68451419304507
C         4.96340855741373   -3.78078095673746   -2.00468342342692
C         5.58095185272737   -2.64448597952203   -2.74717632758118
O         6.65157401302102   -2.71373850395032   -3.33846836429285
H         4.45949809480898    0.49790600199773    0.76296845663364
H         4.07575807796752   -1.25425155095097    0.56967914381707
H         3.40326190341203   -0.30634759757489    1.91061765045638
H        -0.35771671691937   -2.46923206781425    0.89901261945472
H         1.40126484996502    3.46006667552719    0.91465304059044
H         1.94457289839530    0.00022432350885   -2.20037855921283
H         3.38873767275645    2.02620121370792   -1.76785882235472
H         5.49882293693406    1.82710986227135   -2.57486164822685
H         5.60015350756872   -4.67904377299426   -2.02566435267382
