26
 energy: -46.151419214594 gnorm: 0.229350562836 xtb: 6.4.1 (79825abcba525fcdf90b791dcacef51065a7a4e7)
C         3.99621002371743   -0.10186427554349    0.71462392084212
C         2.64576956313056    0.06339908680643   -0.01667443508860
C         1.66280919310010   -0.95023688703607    0.54612968180916
C         0.69533572568461   -1.65612512164945    1.06164269307637
C         2.05405286938073    1.35958877955561    0.41542598095762
C         1.39238947725922    2.33350142338365    0.63995845501280
C         2.71255511286099   -0.14396573395566   -1.59288513324350
N         3.53921953063730    0.93514137793117   -2.16111191895069
C         4.89286696765854    0.87967292128818   -2.00986618030379
N         5.54350125398403   -0.22975844114904   -1.93938467273113
C         4.82380760811087   -1.40342121927635   -2.04395209743689
C         3.47879373765270   -1.40850059504711   -1.99625882690164
S         2.45607178642044   -2.80156899997254   -2.21294279811812
N         3.48764538356747   -3.97430785326862   -2.77481424741591
C         4.76935564176903   -3.82512710669144   -2.72967028133409
C         5.59704364460616   -2.63905072941061   -2.36638375903661
O         6.81475530407737   -2.74420529441239   -2.44869307574100
H         4.57300864628739    0.82914176742479    0.64367985912067
H         4.60355035634639   -0.88551218908271    0.24846562479764
H         3.82770864363409   -0.31823364549626    1.77577022430345
H         0.12718044122618   -2.45775113651223    1.47548678934649
H         1.07291184372279    3.28657670681522    1.00279141367033
H         1.75542190694505   -0.16066682770190   -2.13406520222052
H         3.14503303129617    1.82268088733991   -2.45871492607117
H         5.47628736665162    1.81579658782340   -1.96638538294598
H         5.37349778031324   -4.64982412392023   -3.13911810494535
