26
 energy: -46.155305613406 gnorm: 0.219835920294 xtb: 6.4.1 (79825abcba525fcdf90b791dcacef51065a7a4e7)
C         3.70763874634508   -0.53615243860747    0.81599297138366
C         2.48451774195376   -0.06527360221922   -0.00134834590909
C         1.23166165254497   -0.88848310439821    0.24983920410625
C        -0.01474474618184   -1.22287211920254    0.43609669412640
C         2.00571955938396    1.29315085603828    0.37598761486253
C         1.70912286441541    2.43895682896611    0.56540299713194
C         2.81373455539924   -0.14345846028498   -1.55614867534581
N         3.58880737204235    1.02599342260811   -2.00600676656110
C         4.89130215383886    0.96024132169776   -2.40286618376347
N         5.52955428807712   -0.15115605985900   -2.53155428779908
C         4.89758593474734   -1.35697974142619   -2.30137426012435
C         3.63506525368622   -1.40639396328320   -1.83773376771567
S         2.76283454656717   -2.87046580849070   -1.47820778776778
N         3.78428799498650   -4.07203405954831   -1.99592065913482
C         4.93724646706862   -3.86603156225985   -2.53935767338641
C         5.69294474383882   -2.58232382959075   -2.60890092573143
O         6.82706607779542   -2.52061315856997   -3.06782856920946
H         4.59601411017326    0.09265306885098    0.67494401989828
H         3.95538775317397   -1.52108412446713    0.40514032651121
H         3.48510771966226   -0.71208360870047    1.87465630807373
H        -0.91479846818501   -1.77844356328778    0.56994474136570
H         1.31914463152435    3.35471234181481    0.95447243616787
H         1.87679196231519   -0.14568417199451   -2.13181558220120
H         3.10157652992389    1.91224511096347   -1.91198031241965
H         5.47715713311263    1.87875882410481   -2.58090268331335
H         5.57589871711399   -4.74192135979356   -2.73352455156326
