26
 energy: -46.147085483577 gnorm: 0.229866213771 xtb: 6.4.1 (79825abcba525fcdf90b791dcacef51065a7a4e7)
C         3.87231118716384   -0.10096593735598    0.84426988565392
C         2.56747846440794    0.00431428256721    0.02443677367979
C         1.46511001174944   -0.99189808530733    0.34500211347812
C         0.53479604607582   -1.85665185501847    0.63954175391544
C         2.05180146266503    1.38334129807269    0.24649273981084
C         1.54255966149567    2.46582529308693    0.17152407276170
C         2.78979572949637   -0.15896948373247   -1.54266695277541
N         3.52537077719804    0.99921687445639   -2.07956692907443
C         4.83043602573467    0.89722359857368   -2.45998178120309
N         5.46442133503541   -0.22250857593447   -2.40173202320677
C         4.89846713671525   -1.44301961129796   -2.09120626032354
C         3.58172092541911   -1.44302326946363   -1.81274234813579
S         2.53707523158809   -2.83198742775044   -1.69852482743866
N         3.55403644279951   -3.93406405996578   -2.41012655582279
C         4.81501373641259   -3.82340459493574   -2.66461585687109
C         5.70023895140605   -2.68918342364132   -2.27251848667193
O         6.92504154976082   -2.69695115029281   -2.29378447334441
H         4.63488678299397    0.53354194651321    0.37482322529307
H         4.27104119872652   -1.11891990546362    0.77317850489206
H         3.76322704694098    0.18085544365448    1.89779598992563
H        -0.36620036168501   -2.37238853011363    0.88222009473719
H         1.23394576181969    3.47887004517737    0.31492560699357
H         1.78612010454992   -0.11384192831549   -1.98972120547148
H         3.08426899086361    1.91312585030550   -2.03624814013626
H         5.42819453633217    1.81569556045387   -2.59299107307399
H         5.33554587531330   -4.57702258770946   -3.27606219368860
