26
 energy: -46.152335973472 gnorm: 0.224527735187 xtb: 6.4.1 (79825abcba525fcdf90b791dcacef51065a7a4e7)
C         3.63128150077615   -0.05891812789915    0.96286976411279
C         2.45482966899069    0.11811068399666   -0.02222951691816
C         1.54927973724933   -1.05636442013624    0.31094460334000
C         0.68551161671780   -1.93700772193299    0.73332924028639
C         1.78132661892134    1.43937303667001    0.11046020757313
C         1.26937942143516    2.52040367003032    0.03298798112391
C         2.88485765282244   -0.05696309632793   -1.54417753050857
N         3.73425503835421    1.07511005456747   -1.95364346363676
C         5.05586996270942    0.81656673067387   -2.16531005148302
N         5.69445574081949   -0.29906002011580   -2.24725957776206
C         4.89295085605476   -1.42332311351807   -2.24708764977409
C         3.61450140830188   -1.37422809250252   -1.82933239925077
S         2.55655043355977   -2.74699106823573   -1.65666722593236
N         3.53474590382542   -3.99348180065985   -2.15119175325735
C         4.77923238603182   -3.89381155842802   -2.48042313661546
C         5.62946710034175   -2.67414004794454   -2.59585298820829
O         6.77566358349041   -2.77994180307406   -3.01501120418331
H         4.44749817141930    0.64711394094495    0.76334275687869
H         4.05087255993045   -1.06918917074959    0.90315667494355
H         3.22422675041591    0.08683812524995    1.96999510134295
H         0.34160642954254   -2.92397521042833    0.94379546240233
H         0.99098943435046    3.54885985936706    0.11571094606967
H         1.96022468752070   -0.09411903842791   -2.13825840955716
H         3.42553491938483    2.03146482892818   -1.80614987743995
H         5.73308945700874    1.66077797330483   -2.38274647363808
H         5.23381328048643   -4.81568787402057   -2.87572135992417
