26
 energy: -46.149949532077 gnorm: 0.207126245163 xtb: 6.4.1 (79825abcba525fcdf90b791dcacef51065a7a4e7)
C         3.70832849530202   -0.26864092874863    0.92108345868475
C         2.48150872300375    0.01320484929257    0.02594385030836
C         1.37873456266180   -1.00701573586894    0.25715064309372
C         0.11832165718745   -1.25382668987348    0.03247207778882
C         1.95276727362990    1.38870422070259    0.23897227209091
C         1.60563663667662    2.50726425737697    0.49400734188682
C         2.81481989542152   -0.15283328091271   -1.52106476777467
N         3.64736586146142    0.96027433814445   -2.00951797671633
C         4.99507075858638    0.84974180251169   -2.18210845745660
N         5.55730512770531   -0.26749987474819   -2.48999498865449
C         4.79330003866200   -1.41490773230278   -2.41170677394495
C         3.54922395255888   -1.44382004963521   -1.89906506032120
S         2.73100968133412   -2.91059486619559   -1.43792651619540
N         3.81315270259484   -4.10386878042939   -1.83820626203441
C         4.98474735299882   -3.90684936861954   -2.34379837552731
C         5.60293757483009   -2.61761892969370   -2.76752874257200
O         6.71669672071497   -2.52593063688812   -3.26931337442467
H         4.01797930853889    0.71905160441235    1.28588724122360
H         4.53319793473068   -0.71219139109036    0.35264411581569
H         3.39398073202857   -0.91162097762128    1.75114492700707
H        -0.70866029253028   -1.88774060989582    0.25813917875539
H         1.21732837756317    3.44159173689075    0.83797691913308
H         1.89589675397467   -0.14096943327189   -2.12496731203178
H         3.25828385734238    1.82331082114105   -1.64146885734404
H         5.63904421475287    1.74216683703655   -2.26855616745303
H         5.53771364701519   -4.84974634119897   -2.47771621105754
