26
 energy: -46.150652044546 gnorm: 0.228860603191 xtb: 6.4.1 (79825abcba525fcdf90b791dcacef51065a7a4e7)
C         3.84318127336555   -0.33539341844621    0.93969034036143
C         2.58079939636486   -0.00607793659185    0.11280340120653
C         1.39000522972831   -0.92750030360627    0.32114812222077
C         0.39477964356842   -1.76896273184772    0.28236942366989
C         2.03795010384185    1.36059181898623    0.34620340736128
C         1.54881074290101    2.44524469148315    0.49108248145331
C         2.82087300028416   -0.10485029744999   -1.45707218043280
N         3.53888433366308    1.07056719009928   -1.98012221372683
C         4.85628209162650    0.94491285547632   -2.30721169731596
N         5.52906285956031   -0.14915793594814   -2.40470885336358
C         4.92668444200894   -1.36380274620558   -2.14364215175480
C         3.64414820197620   -1.36718502178976   -1.73565673690675
S         2.64223275194212   -2.79184983053155   -1.74253605498307
N         3.55486410619483   -4.03134115794494   -2.36376490695356
C         4.80411791959594   -3.83730422840201   -2.62604077807069
C         5.64881694435629   -2.61217292314756   -2.52930128157825
O         6.86507723159213   -2.71725021855915   -2.63090670069934
H         4.32850778878862   -1.22484644896461    0.51798731329517
H         3.44609383283222   -0.59563422593608    1.92704345765202
H         4.51659689072414    0.52466088336186    0.84992451640492
H        -0.42845981007883   -2.43391431328091    0.41193726541181
H         1.17239220667015    3.44519648301447    0.51280135202910
H         1.85474433493828   -0.11245563964615   -1.98223532371063
H         3.07859451525734    1.96448989635561   -2.12404024312157
H         5.35977712091749    1.91606265037605   -2.45539498779397
H         5.42334850707937   -4.70249224762050   -2.91023011824261
