26
 energy: -46.151420940435 gnorm: 0.225424751124 xtb: 6.4.1 (79825abcba525fcdf90b791dcacef51065a7a4e7)
C         3.78446670023873   -0.57970271044560    0.76016236650982
C         2.57249405318393   -0.05747879396705   -0.04246032000778
C         1.35110911271430   -0.83038382083468    0.42791621654943
C         0.10912600626355   -1.22528111389110    0.46755032023260
C         2.25052512119054    1.34883241634325    0.32574059218412
C         1.87478750065780    2.33215227233577    0.89899656439891
C         2.70950134105927   -0.17534635365920   -1.62335780828412
N         3.45942808574204    0.99839158033263   -2.10364628273991
C         4.67695931551672    0.90443800594285   -2.70953721482727
N         5.38292703771550   -0.16312959164973   -2.85458740372843
C         4.82675671512952   -1.32310875733923   -2.35308914745713
C         3.51606368160912   -1.40384296284827   -2.05825276551025
S         2.68800170294256   -2.89262405850774   -1.69576703423266
N         3.77338584871023   -4.12208775311395   -1.95173637576629
C         4.97839828265946   -3.82896576483732   -2.31103928751543
C         5.70391588008884   -2.52979697472626   -2.40905128207640
O         6.92094068577003   -2.39300578657063   -2.43720758544282
H         4.72143140845064   -0.22721658876216    0.31032614145841
H         3.82844981163793   -1.67438396397990    0.76304783560536
H         3.71805799874155   -0.24177632430908    1.80066010216884
H        -0.77498546590989   -1.79444762712109    0.64381152976060
H         1.66181909494249    3.32012733266502    1.24629462727282
H         1.70815678665472   -0.05979683267152   -2.06292139675868
H         2.94053289767184    1.87005905755879   -2.05245531831154
H         5.17417422896447    1.81113631367829   -3.09589581152242
H         5.63579608205455   -4.70490744282522   -2.42642870788411
