26
 energy: -46.153942458373 gnorm: 0.224480835491 xtb: 6.4.1 (79825abcba525fcdf90b791dcacef51065a7a4e7)
C         3.84014204533684   -0.00375331640474    0.77464224457204
C         2.53897690300302    0.13794509242354   -0.04553427158935
C         1.60743840575442   -0.97524724667476    0.40552699579478
C         0.84096763626044   -2.02401073087246    0.51801909174277
C         1.80377713910580    1.42150946513332    0.12443901408679
C         1.28463710575097    2.47920192738152    0.34466475910352
C         2.83146548892713   -0.00262143557896   -1.60328653248839
N         3.74193622423703    1.09457809675832   -1.97466787574113
C         5.05866038206347    0.83671620134738   -2.21562042185823
N         5.61146093562234   -0.32537358788392   -2.27120305419095
C         4.79272021721822   -1.43710567231748   -2.28084725290341
C         3.48072653031902   -1.33321365477278   -1.99934813387219
S         2.49151139238205   -2.76658024865039   -1.97777699808964
N         3.49425490179512   -4.08931966674988   -1.97268673888589
C         4.75944954538512   -3.95816975470854   -2.19439887301805
C         5.55226149925873   -2.71500730799018   -2.41759840236588
O         6.72448801593789   -2.67879479653492   -2.77147357929303
H         4.66123520811985    0.60973010412168    0.38228262815116
H         4.11846172848348   -1.05686898958293    0.65735873153660
H         3.79301243949736    0.23112219992870    1.84415249798561
H         0.31528919441477   -2.92000575747254    0.75786635649144
H         0.82195686866009    3.39014138355875    0.65800563671223
H         1.84873395313402    0.08130019306939   -2.08955255890102
H         3.38741974870440    1.99747052825781   -1.67337026817772
H         5.74177614436718    1.70108817047832   -2.28498476777832
H         5.36289937838041   -4.86952714354808   -2.06009914128476
