26
 energy: -46.149078726796 gnorm: 0.228408947004 xtb: 6.4.1 (79825abcba525fcdf90b791dcacef51065a7a4e7)
C         3.79852118032260    0.04921000712427    0.80094259227296
C         2.52199154216933    0.18186984235719   -0.05851778416255
C         1.60451154608624   -0.90114147562633    0.48529684811770
C         0.70819048495472   -1.77994921211387    0.83791883835244
C         1.88525232998572    1.51972145024065    0.08866697499070
C         1.17179555359548    2.46956089275687    0.24836530585659
C         2.80061225597342   -0.08928962816833   -1.60148364816069
N         3.69774101693007    0.97972258432000   -2.07381907545391
C         5.04236791547065    0.79568551187393   -1.94566972354296
N         5.59302999351201   -0.36870458119124   -1.95554614041838
C         4.86186037390068   -1.53054057588429   -2.10355190947749
C         3.53983922867603   -1.40110985034272   -1.88705592851944
S         2.53387765322993   -2.81732610272241   -2.01324837669432
N         3.60938115684542   -4.07855039131969   -2.10137063371192
C         4.85894348718746   -3.98517588109189   -2.41273736009822
C         5.63886745749246   -2.72224105994445   -2.55604097391036
O         6.73582670139617   -2.61109163545229   -3.08987634694188
H         4.63797674576552    0.48383573500692    0.24334346130028
H         4.03202524709408   -1.01036832226834    0.95273028029314
H         3.57375774437271    0.58187878109547    1.73206303156311
H         0.19291294838873   -2.62759040818369    1.22864263052957
H         0.70458123247521    3.41176130036595    0.43819514959846
H         1.85547165232743   -0.11565730841400   -2.16297518184683
H         3.29026019195725    1.90297696891129   -2.18887402252506
H         5.73978126391605    1.62015988141525   -1.71664114056747
H         5.33050710709838   -4.97190584215333   -2.54216742395691
