26
 energy: -46.157666256269 gnorm: 0.221867936301 xtb: 6.4.1 (79825abcba525fcdf90b791dcacef51065a7a4e7)
C         3.79868927744174   -0.09303377368536    1.03228634787148
C         2.54751379873792    0.06347202337378    0.14017394946049
C         1.46858105126079   -0.96928068952126    0.42256263391694
C         0.59398032648160   -1.91062637081520    0.64387379069031
C         1.94497434986870    1.41915505438304    0.26673159628412
C         1.43160022883355    2.50208104328977    0.24581724009778
C         2.86828778200762   -0.08140167716477   -1.41160447517222
N         3.70697705422379    1.01172885673589   -1.93351807900979
C         5.01943659976469    0.84711943501839   -2.26316496797252
N         5.61106848797291   -0.28078216163952   -2.45536344374730
C         4.83100486481549   -1.40299740736807   -2.25912053371048
C         3.57313145981046   -1.39133200160009   -1.78060078585439
S         2.67492127556352   -2.86998149933108   -1.57968831720257
N         3.48927500332248   -3.94658593065782   -2.54556146236650
C         4.66538672220989   -3.78760652853539   -3.05405023914068
C         5.54581957322533   -2.65464719999495   -2.64777095929720
O         6.76174052669792   -2.78899192670851   -2.58341474998274
H         4.49869424498947    0.70520740305677    0.75424673171728
H         4.30028061183382   -1.05770915139115    0.89783400707181
H         3.53775902435080    0.04290370979107    2.08806866196967
H        -0.25437834410086   -2.51800492198361    0.86307798533903
H         0.87733079985517    3.41545876256730    0.22147096038666
H         1.94030641823055   -0.06881600846033   -2.00147815107926
H         3.37855832520383    1.93629714277799   -1.67085566284307
H         5.58876979311742    1.78683723201034   -2.36987781870259
H         5.01416400481674   -4.51819014311124   -3.80061731383929
