26
 energy: -46.148815144740 gnorm: 0.229304064016 xtb: 6.4.1 (79825abcba525fcdf90b791dcacef51065a7a4e7)
C         3.60105257517203   -0.37967789699500    0.99909444277278
C         2.43816146081327    0.02385273630992    0.06601032275028
C         1.26465426984762   -0.90289936588337    0.33882682869171
C         0.16284684879532   -1.45702564227601    0.76191221182830
C         1.87844431318058    1.40280150650309    0.11253047164820
C         1.43635856109109    2.49585625433245   -0.10313271890478
C         2.92419820462740   -0.17663910517594   -1.43581254979116
N         3.74669405298536    0.99240495152997   -1.79297421312522
C         5.09229284721913    0.87693313949060   -1.97829432535317
N         5.66112838373608   -0.21344775473469   -2.36121233144403
C         4.89367284634721   -1.36110855166823   -2.37746942170318
C         3.69837471716583   -1.45734973399963   -1.76643524953827
S         2.88718381168396   -2.90387665978010   -1.23438180753242
N         3.73816206642483   -4.03935386833252   -2.09559464345252
C         4.76045453785451   -3.82522208877372   -2.85463334125235
C         5.55982557464568   -2.56970353726899   -2.94683321801674
O         6.57770408132171   -2.56954142264703   -3.62843230267086
H         4.46856467824065    0.27447925487527    0.84416500280023
H         3.89114596953120   -1.42089595577802    0.82026305917696
H         3.29170783767054   -0.19357871480088    2.03394362231974
H        -0.59055103632498   -2.16644300337374    1.01840833399036
H         0.95733084801729    3.44878626852666   -0.17038629057738
H         2.03417001088209   -0.12769883154898   -2.07979502899906
H         3.38014927756619    1.90126003293254   -1.52594557538894
H         5.73145961022200    1.77695000699529   -1.97255452964995
H         5.30195578192535   -4.60530152057031   -3.41231864532550
