26
 energy: -46.149548226997 gnorm: 0.217606462703 xtb: 6.4.1 (79825abcba525fcdf90b791dcacef51065a7a4e7)
C         3.49305299499569   -0.09785230158400    1.08519671794965
C         2.42665052182877    0.03407096412421   -0.02438910795240
C         1.39594780618479   -1.06367175634615    0.18304824245736
C         0.39364105891553   -1.70695691809070    0.71371023063979
C         1.75031840020470    1.35039762520855    0.13933657324465
C         1.07897906810702    2.33330817815187    0.28043741562930
C         3.05980589968440   -0.01196983934681   -1.48346248951257
N         4.10672655031784    1.02180666838972   -1.56086504344552
C         5.36308390884647    0.79991536231230   -2.04111896206110
N         5.74954496171454   -0.30768502108851   -2.57309622108064
C         4.86188113096599   -1.36290245920066   -2.50276357529581
C         3.66847500342136   -1.36130999732965   -1.88055619546524
S         2.69222275776524   -2.77079471372567   -1.57422944135387
N         3.72648976675770   -4.03101654476590   -1.88614724771342
C         4.89679357738785   -3.94595301678803   -2.42487468240450
C         5.43167638261744   -2.66300793001106   -2.96503576181528
O         6.29874176815191   -2.63665923226304   -3.82999666541226
H         4.35567852507286    0.56282612081900    0.93065489425609
H         3.91139984966357   -1.10944100206003    1.12928861983627
H         3.13888416039850    0.08807091208451    2.10560687433287
H        -0.48231819617600   -2.28750584136874    0.89351555568216
H         0.53840965113723    3.22303691691214    0.52175396947181
H         2.31247813373858    0.28056600349049   -2.23524886185785
H         3.81158573554430    1.95342284276681   -1.28398939676446
H         6.19451413470724    1.52348270742604   -1.97970615934427
H         5.50430211227855   -4.84918140212189   -2.59182459712804
