26
 energy: -46.153155780033 gnorm: 0.211122521975 xtb: 6.4.1 (79825abcba525fcdf90b791dcacef51065a7a4e7)
C         3.95617291626617    0.04878964649554    0.93171626865314
C         2.64113550699914    0.07033912024042    0.12177125016689
C         1.69996488192893   -1.04138892164715    0.55613982954746
C         0.62776227095484   -1.77021368171264    0.41745742664936
C         1.90800330510422    1.36022848858992    0.24687012836024
C         1.25193787640160    2.34849838196071    0.41897441512886
C         2.87745161852489   -0.11674835542267   -1.44061590257266
N         3.63158743403950    0.99707620018615   -2.04178302762253
C         4.98921299705395    0.87575251481086   -2.06292053932643
N         5.62432537723124   -0.24293040314754   -1.99725964129774
C         4.89348799497983   -1.41198127938884   -2.07192129799932
C         3.57111544582522   -1.42906205044066   -1.82211770806984
S         2.52896890515840   -2.82383990689946   -1.86769199417581
N         3.43157549110422   -4.01874669160611   -2.58369419693074
C         4.66841896163986   -3.79163357957646   -2.87646017976729
C         5.57320552892244   -2.65178899949730   -2.55098007573351
O         6.77848335665789   -2.83693238985591   -2.66794705045399
H         4.21444380535877    1.01757875303903    1.37808581742067
H         4.83288203302870   -0.24797812518585    0.34555937580270
H         3.80337881666052   -0.73106267026005    1.68651705508900
H        -0.16008771316072   -2.46943390146083    0.58194183277053
H         0.65967730530293    3.23776239460154    0.39654360806503
H         1.89650229532212   -0.10925800098242   -1.93754758006304
H         3.24444716179801    1.93130211045954   -1.94680259333145
H         5.54838104771781    1.81862280120003   -2.19301347683318
H         5.25510645508483   -4.57976048253324   -3.37386764121149
