26
 energy: -46.155473782490 gnorm: 0.223272067600 xtb: 6.4.1 (79825abcba525fcdf90b791dcacef51065a7a4e7)
C         3.87811476190726   -0.08122536571298    0.72597849212410
C         2.55486269336206    0.06403032622106   -0.05741377507303
C         1.76600827223312   -1.16552709957079    0.36248462702907
C         0.88403572558187   -1.98810878999526    0.85798493192706
C         1.75731044919854    1.30109243641720    0.16738583556205
C         1.17511400849559    2.31564695039246    0.42900682281564
C         2.88250127331698    0.03951431577810   -1.61431857915054
N         3.78921271454307    1.13712305627399   -1.99360382289180
C         5.12231763211942    0.87285858218091   -2.09994744824986
N         5.68850673579881   -0.27492840317445   -2.24536237129389
C         4.81692918201325   -1.34572951119983   -2.23463103726481
C         3.49300471331330   -1.31380646309639   -1.99469837881914
S         2.45690483989252   -2.71345117252807   -1.96239598776815
N         3.38774630311441   -3.99543161109393   -2.45759327621810
C         4.66248609174544   -3.88476637365171   -2.63041034447023
C         5.49279348931548   -2.66281856019392   -2.42729738744172
O         6.71362714802043   -2.75553644493194   -2.38701618319241
H         4.44554558605451   -0.90062178941849    0.26650735740060
H         3.61048027567161   -0.37044561807549    1.74822763859734
H         4.44998009688024    0.85376513809477    0.72761936852459
H         0.38295402873917   -2.75259685942972    1.40675332546664
H         0.64932320638195    3.23797456991547    0.55116244118866
H         1.92361633941130    0.15762066959338   -2.13953219426064
H         3.49038456011028    2.02787970588165   -1.60768770313493
H         5.81640910652388    1.73000643740201   -2.05377342986528
H         5.25754932171533   -4.76646871734044   -2.91547374725061
