26
 energy: -46.150266915456 gnorm: 0.220057326332 xtb: 6.4.1 (79825abcba525fcdf90b791dcacef51065a7a4e7)
C         3.78104217958885    0.07286301253223    0.90384883426459
C         2.53721197240838    0.13033172611827   -0.01014375790836
C         1.54835392532268   -1.00309253849918    0.20877778707163
C         0.57535331794928   -1.86965490819704    0.25752458223196
C         1.77814038824756    1.36621891756095    0.32651675447951
C         1.09297384706051    2.29805371892010    0.64107965516396
C         2.94545971495841   -0.00847189831721   -1.54179906175751
N         3.89150212047263    1.07159051281210   -1.87224851174447
C         5.08646663237711    0.81211247942011   -2.47478013957673
N         5.61055614921798   -0.32957846442481   -2.75938957065923
C         4.87148090853970   -1.43090953766434   -2.37570316608809
C         3.61776880863503   -1.33973538663674   -1.89481233249320
S         2.56711466530980   -2.71440240266003   -1.69489191583736
N         3.46034005422350   -4.07253241905161   -2.03073606258047
C         4.71891615124769   -3.94370466601731   -2.28854156150297
C         5.57702696736622   -2.74130602853904   -2.49275967786328
O         6.76498004814564   -2.80445531863690   -2.78505001302316
H         4.28812225160501    1.04616202459300    0.89605172018026
H         4.47393574604704   -0.65760626958836    0.47189626337570
H         3.52084599125415   -0.31392677853224    1.89578204627930
H         0.03341789145580   -2.69159702387748    0.66665632594855
H         0.61778421656303    3.22521043838236    0.87907427048178
H         2.05856867290896    0.14044567472423   -2.17465497130225
H         3.64132278121284    2.01792087549952   -1.60105473215322
H         5.74572591853777    1.65756494372663   -2.73781014410861
H         5.28502900777994   -4.88809176060625   -2.30878164706901
