26
 energy: -46.152178984568 gnorm: 0.221997543831 xtb: 6.4.1 (79825abcba525fcdf90b791dcacef51065a7a4e7)
C         3.96232408791246   -0.04001195998690    0.73057986099535
C         2.62273795432946    0.06507612915168   -0.03117087971163
C         1.66360581088294   -1.06473482139062    0.30648308885352
C         0.54785100716317   -1.67039764197120    0.60363716493916
C         1.90093296608438    1.33953719554470    0.23658590429733
C         1.56794638439964    2.46288685604160    0.48941904688887
C         2.89762012022149   -0.04261215947249   -1.59473849480337
N         3.75960969308058    1.09491725859581   -1.96042781840771
C         5.03805070768191    0.87523905187984   -2.37952620126377
N         5.57310898377906   -0.29642663002796   -2.38606295436735
C         4.79657842484653   -1.43237327174921   -2.27203173238312
C         3.47723039766490   -1.39981802249332   -2.00816870743426
S         2.44187250038390   -2.79695931466722   -1.91028133707281
N         3.45059820398350   -4.10918181985377   -2.03559924671504
C         4.73247865977095   -3.99854048781471   -2.14337239261549
C         5.50080203702116   -2.74373555671948   -2.38620045679620
O         6.68241870271962   -2.72160369248157   -2.70860739588997
H         3.83611336552136   -0.33795801968914    1.77929381657810
H         4.45132653206655    0.93762210583924    0.65724409507059
H         4.60748429401324   -0.81708872622660    0.30495102510516
H        -0.32758241090491   -2.26714355952665    0.72272651307965
H         1.04384654468009    3.37711066406578    0.66712779854159
H         1.87939859947858    0.04402895747769   -2.00091213110654
H         3.37163326194427    2.02830148019317   -1.86070266638913
H         5.70943005162939    1.73823046100335   -2.53149021300805
H         5.31894386907303   -4.92951054102156   -2.18934769118659
