26
 energy: -46.151553883495 gnorm: 0.224982713491 xtb: 6.4.1 (79825abcba525fcdf90b791dcacef51065a7a4e7)
C         3.88665899002241   -0.15634668542183    0.80608217397984
C         2.59445738379210    0.03110224646720   -0.01907029803479
C         1.53360435745971   -1.00174277442045    0.32478936023847
C         0.43926318833864   -1.68687366588437    0.50658550966280
C         1.96664089880608    1.34211911005307    0.30346399591502
C         1.63792477012623    2.46520586026680    0.56296537529701
C         2.77671195398259   -0.13336126566715   -1.59121395209780
N         3.53373579612937    0.97037386011734   -2.20717787991437
C         4.86475019021456    0.89817904821061   -2.49266341340681
N         5.52416736328037   -0.20265810234485   -2.38105193362400
C         4.83419717169367   -1.35521786379474   -2.06179539214473
C         3.49608337724310   -1.43963857057753   -1.94480232289321
S         2.51138791688608   -2.87584390956628   -1.90957762817748
N         3.60025292884545   -4.09892874151969   -2.18086439433074
C         4.86134697212637   -3.86726931995842   -2.33268595724986
C         5.63954809411987   -2.59773132258708   -2.25207583400865
O         6.84922875171054   -2.54726437387824   -2.43856925435439
H         4.76903744610712    0.16280810722550    0.23682789009024
H         4.12065825623298   -1.17042194601280    1.14837677504708
H         3.79636173551101    0.54733320358806    1.64149878737385
H        -0.19694129385362   -2.49789299462138    0.77891460489590
H         1.48503162262413    3.47650353380934    0.87275063410302
H         1.76817819813156   -0.07650578787427   -2.02582399342064
H         2.98195933557188    1.82279512357700   -2.18273096207217
H         5.39854719528082    1.79401638718708   -2.85478725700152
H         5.51295810458935   -4.72228447964901   -2.57166801332841
