26
 energy: -46.146998102219 gnorm: 0.227779948535 xtb: 6.4.1 (79825abcba525fcdf90b791dcacef51065a7a4e7)
C         3.50082234451095   -0.33029392179349    1.12680196021281
C         2.44403489582659   -0.01201723043773    0.04620076431750
C         1.30100951535635   -1.01268576214477    0.09692490938473
C         0.34204484682536   -1.63246747193104    0.72644392335395
C         1.92686920769885    1.37372861343251    0.21706696561466
C         1.84007308927597    2.56921021739699    0.21401846899667
C         2.84110800746927   -0.13106430977575   -1.49004836764122
N         3.67607570774064    1.03297902765278   -1.83437369475782
C         4.95396732757758    0.90571620787038   -2.29165979541087
N         5.56803056224025   -0.22194458720437   -2.39382647676946
C         4.87036948316595   -1.41218193598469   -2.33922182374445
C         3.61895656724000   -1.40328818046545   -1.84399525850465
S         2.66611305310396   -2.84393721266034   -1.62000574188434
N         3.74526681046057   -4.04117878990091   -2.01649003998182
C         4.92575144637181   -3.91185272952457   -2.52324920275657
C         5.62316824142787   -2.62063621815014   -2.78818584695301
O         6.76789646566841   -2.52486888323705   -3.21372068548146
H         4.20493018790147    0.47672638123460    0.88710977466280
H         3.98652268868085   -1.29773364000837    0.95820345162327
H         3.15656782139831   -0.34842378471478    2.16718651807911
H        -0.49729335675913   -2.28441004668245    0.81102465198748
H         1.66513528970777    3.60703806465312    0.39942704751727
H         1.91409265524380   -0.12359089104837   -2.08152571762892
H         3.21709538732061    1.93642368042162   -1.90366833612259
H         5.49155601728824    1.85481572462859   -2.46138299525030
H         5.45233703908691   -4.83466833960025   -2.81286855635408
