26
 energy: -46.154410371617 gnorm: 0.229805198998 xtb: 6.4.1 (79825abcba525fcdf90b791dcacef51065a7a4e7)
C         3.64693366410868   -0.41756380126206    0.92095301262556
C         2.47498741480962    0.02674232955444    0.01821675635915
C         1.23719767311146   -0.81645856687603    0.27765121785814
C         0.20081331150983   -1.60231672073516    0.36914538381794
C         2.01684221606650    1.41865403898479    0.28209532251028
C         1.54938568032665    2.52136347383123    0.32937532853323
C         2.91034642601078   -0.10100272109558   -1.50692073853101
N         3.77062021401367    1.06520844840549   -1.77264315601150
C         5.03189420644985    0.88143995607639   -2.25609993489003
N         5.59724034294782   -0.23825735282464   -2.54900306847242
C         4.84811157621463   -1.38303622673862   -2.36281759792125
C         3.60258378636659   -1.42345439511777   -1.85449717340374
S         2.68481522135323   -2.86399160656554   -1.51375517431460
N         3.81992351963883   -4.04447690356877   -1.78420599531933
C         4.94277397570921   -3.87025815291993   -2.39733627961435
C         5.56764513993377   -2.59545863322707   -2.85367379283246
O         6.65147016444923   -2.62174425462522   -3.42401262423218
H         4.25798134349680    0.43143426570770    1.25310505121141
H         4.22811019025123   -1.17233553680454    0.37982145586039
H         3.35455293905843   -0.91326342855746    1.85370983293867
H        -0.71223655943116   -2.10528917527315    0.59281985503788
H         1.13525343610000    3.50202708670288    0.42350061368916
H         1.98443215770805    0.00231350754393   -2.09110161454650
H         3.27196443998080    1.91906606823396   -1.54037927680852
H         5.59417740210490    1.82480468501726   -2.36789463782266
H         5.57411056387942   -4.76865762300837   -2.48131794614214
