26
 energy: -46.147419840095 gnorm: 0.228068732255 xtb: 6.4.1 (79825abcba525fcdf90b791dcacef51065a7a4e7)
C         3.73251178909110   -0.00587690854969    1.01762981877152
C         2.52775431009669    0.05789023834254    0.05311343118096
C         1.45720664045246   -0.90774458793433    0.53466769466064
C         0.33192575071515   -1.37164163097880    1.00219226438274
C         1.87753993675354    1.39535326240137    0.12633269563607
C         1.69003682316671    2.55290611490871    0.37459282265436
C         2.83965613490980   -0.28561877809849   -1.46893105928629
N         3.51307174781518    0.88359572933062   -2.06068837957005
C         4.84324279478995    0.82652996152472   -2.35343721155948
N         5.54458564529907   -0.24082574979888   -2.18610356668236
C         4.94905947664146   -1.47894327144323   -2.04902263222242
C         3.62457704976663   -1.55372260809006   -1.82204886503666
S         2.59799074374284   -2.95278133939935   -1.97140386131154
N         3.64901556456342   -4.14182572959326   -2.45790184743400
C         4.90242602583544   -3.90075953140406   -2.65264104966855
C         5.71823317389984   -2.65678094804793   -2.54872920526404
O         6.89299372730880   -2.50901388138958   -2.86298471888058
H         4.47890961062071    0.74028661481612    0.71657791463860
H         4.19376660512821   -0.99957966730743    1.02591897814806
H         3.32013214893925    0.19916366189271    2.01218564692913
H        -0.47823853483467   -2.01948033612821    1.24838420530074
H         1.45956701119971    3.59156671219329    0.47526078643380
H         1.88291778009705   -0.29837340027851   -2.01091612217915
H         2.93582109905777    1.71078176706803   -2.17994385539350
H         5.45427492830774    1.73337951972589   -2.50463597943931
H         5.46062258377352   -4.78987779031905   -2.98527558467756
