26
 energy: -46.152600006086 gnorm: 0.227928356773 xtb: 6.4.1 (79825abcba525fcdf90b791dcacef51065a7a4e7)
C         3.83519563843948   -0.33580317432180    0.74752651344149
C         2.60127605198850    0.04695987298386   -0.09907469488135
C         1.51519070444029   -0.89239121970112    0.39937850353871
C         0.71559675738588   -1.80096153609743    0.88433857766236
C         2.01128710440357    1.39717241412640    0.11490259166846
C         1.54703789972086    2.50224408489569    0.11780032164062
C         2.79297660865072   -0.04171488360752   -1.67618862182468
N         3.63738893411351    1.06284883678045   -2.16366651758203
C         4.99214503301977    0.91145154100903   -2.16897397233716
N         5.60381088961699   -0.22201468198915   -2.15317024324709
C         4.87616519133115   -1.39504781085209   -2.18321370847486
C         3.54650932519180   -1.34073726779764   -1.98214559148445
S         2.46035365952177   -2.70198592114552   -1.95351551981509
N         3.42404749737275   -4.03568345719665   -2.17193048253697
C         4.69376876650459   -3.90283698650776   -2.36489101210126
C         5.57374941715391   -2.69910312914336   -2.38681230581000
O         6.78207418005652   -2.84805494576728   -2.52252747884965
H         3.55296321605371   -0.31223133482231    1.80785249681069
H         4.68522253664826    0.35232663883857    0.68270738425429
H         4.28744462040789   -1.32613070147978    0.62118514588258
H         0.04007440803932   -2.32258916484838    1.52327973547728
H         1.21018268230745    3.51178794625970    0.21483622179314
H         1.85014975198571   -0.03966904367248   -2.24216750882032
H         3.19260437801692    1.96912126950149   -2.05180096820001
H         5.65089647873884    1.79718914613099   -2.15834921252475
H         5.30954132740757   -4.81380662500076   -2.42587365150635
