26
 energy: -46.149849695333 gnorm: 0.207558621240 xtb: 6.4.1 (79825abcba525fcdf90b791dcacef51065a7a4e7)
C         3.50837993580578   -0.17214151421248    1.05176573848951
C         2.41116729982677    0.03610166316369   -0.01526654692980
C         1.34611715156325   -1.02898786303632    0.18886552082534
C         0.21332673086696   -1.53567827207453    0.58897482367636
C         1.75931512680628    1.36173850097957    0.17107408068111
C         1.08396788342287    2.33802137122861    0.33689614651710
C         3.05999670012851   -0.02058218308223   -1.46706128437865
N         4.07611399345928    1.04313093274550   -1.54920702885006
C         5.34227536568636    0.76830970970355   -1.97302546285518
N         5.75106001961457   -0.32952984531440   -2.50853827714383
C         4.87489581507829   -1.39507779695945   -2.56617026795278
C         3.67126732084077   -1.33405733577116   -1.96707287488805
S         2.73574618829837   -2.74957720499240   -1.57381035803037
N         3.88236080390243   -3.94650915016598   -1.66206493916717
C         4.96843727061978   -3.87217020763516   -2.35631683240489
C         5.43031830575554   -2.67022372315904   -3.10852176328569
O         6.17793475155469   -2.78833974846335   -4.07173110877526
H         4.28438010635466    0.60371105624025    1.03231111517588
H         3.98105712197243   -1.14893574077751    0.90103683168700
H         3.15292593285822   -0.13188679255466    2.08775410792525
H        -0.40528417757197   -2.36635702585330    0.84188781217418
H         0.48684493318976    3.22187052050751    0.40263095343297
H         2.28207394360309    0.22789495972403   -2.20350819782250
H         3.87136277569331    1.77902546978923   -0.87971984289944
H         6.11579966844954    1.55421264362571   -1.92189633814188
H         5.65909907116963   -4.72574949597712   -2.27176456428332
