26
 energy: -46.154884221000 gnorm: 0.209341618892 xtb: 6.4.1 (79825abcba525fcdf90b791dcacef51065a7a4e7)
C         3.81149703617409    0.02802391888677    0.89352890309100
C         2.51598330821952    0.05003112118413    0.05272062502033
C         1.56698499122633   -1.07860027715432    0.42151703554778
C         1.00607600163288   -2.02065169125181    1.12717772339609
C         1.81021438014546    1.35464099516033    0.18245273941965
C         1.35168805432017    2.45579021225190    0.30053371883768
C         2.86448614529873   -0.05413895250996   -1.49634199908024
N         3.74778800204438    1.02037463033663   -1.98206442606537
C         5.10146148120095    0.85999671120533   -1.96939811700008
N         5.68118356890124   -0.28771975956759   -2.04555431479322
C         4.86639349237734   -1.39687317262719   -2.15633987964268
C         3.55987912858278   -1.37754649139984   -1.83383491037615
S         2.47235902090226   -2.72484945004061   -2.02258465679989
N         3.42287479495874   -3.99988340588085   -2.49794578571472
C         4.69138487381773   -3.89759537710075   -2.71587558642967
C         5.51425212724272   -2.65718204241626   -2.62595373689831
O         6.71585887803963   -2.73283829384032   -2.85194343657339
H         4.44039650046574    0.91948121609348    0.77398263407315
H         4.38993507447519   -0.89300907035126    0.76170494719156
H         3.50863912695353   -0.06622037777964    1.94264043070453
H         0.25408534351016   -2.76916798333942    1.23160492670614
H         0.68187151410646    3.28799750708914    0.27149878062603
H         1.95955136896968   -0.05475677894652   -2.12112311385386
H         3.35572967391206    1.94644315819625   -2.12476787231396
H         5.68642029825659    1.79591469827073   -1.99126504271580
H         5.13955655270427   -4.82430362504841   -3.10717391109675
