26
 energy: -46.148495992513 gnorm: 0.224606300271 xtb: 6.4.1 (79825abcba525fcdf90b791dcacef51065a7a4e7)
C         3.88166002335037    0.00618529817933    0.92059998093997
C         2.56891440454387    0.03795019036986    0.10728047409978
C         1.53151021009602   -1.04761957596087    0.34339113229398
C         0.60177529793282   -1.94779159742229    0.50251398113859
C         1.85496317615618    1.32167362379098    0.35074488386357
C         1.26808276834200    2.36627048453792    0.31745981441107
C         2.86530360273784   -0.06124482394380   -1.45291644858877
N         3.73302006962415    1.05716198410235   -1.86152656551978
C         5.04884502705368    0.81462990173611   -2.12247918407619
N         5.64546616884574   -0.31326605325189   -2.29861688805809
C         4.86829620349919   -1.45091931105842   -2.20845302952020
C         3.57281328291517   -1.35989567039577   -1.85518053808882
S         2.56224022145934   -2.77289718489570   -1.72979903849211
N         3.41495275236116   -3.88822899087052   -2.61527988668834
C         4.67478147908793   -3.81029916846523   -2.88700140592606
C         5.61132032832288   -2.70031122994079   -2.54841099796245
O         6.83618452488377   -2.71565925239966   -2.53718006609568
H         4.20275473388658    1.01747291589512    1.20113072620044
H         4.75763292906559   -0.45431238032526    0.45061781018594
H         3.73291453990346   -0.71850288487890    1.72926660916714
H        -0.10151430423428   -2.70117539349516    0.77540262548741
H         0.82615636083564    3.32166668937045    0.50181097307649
H         1.88272657520022    0.01933953836101   -1.94005843286119
H         3.32071010400864    1.96637327280334   -2.04864216420193
H         5.66089160394006    1.73235156060479   -2.16470956378467
H         5.07358966251607   -4.66266663448672   -3.45899978641401
