26
 energy: -46.151338869003 gnorm: 0.220560388267 xtb: 6.4.1 (79825abcba525fcdf90b791dcacef51065a7a4e7)
C         3.58387935604697   -0.57138296417851    0.73840583990505
C         2.41084223317328   -0.03720343523399   -0.11273154150277
C         1.17743349920396   -0.88313896686642    0.15840202602849
C         0.37258617956538   -1.63625607250019    0.85487326781678
C         2.16406222206283    1.37245078965668    0.29826933398826
C         1.98440255202867    2.55470570029483    0.38021345680102
C         2.74471735065933   -0.11020112043242   -1.66679054438949
N         3.53784603959460    1.05097866216806   -2.10649075086518
C         4.88372385312163    0.95243565667891   -2.29940415885482
N         5.54436449147546   -0.14923666083503   -2.39428627081680
C         4.77126737460704   -1.29132448934988   -2.32845431888092
C         3.45592438202833   -1.40714802750592   -2.06803067637605
S         2.62512339617042   -2.92330812203491   -1.85689093947949
N         3.80982150803339   -4.08410708332910   -1.79211297977921
C         5.03202396209429   -3.79461894507370   -2.09126484680147
C         5.64987196603705   -2.49032328906956   -2.46662918925971
O         6.81342203979533   -2.43432731820876   -2.84566701929678
H         4.58347786155270   -0.17658718914651    0.51605233080017
H         3.51022195417303   -1.64935579367991    0.55724552696811
H         3.37936242264142   -0.35673288979611    1.79355420323406
H        -0.49076383420172   -2.21244014904192    1.09841031776164
H         1.99668154524187    3.58293939640489    0.67116173464680
H         1.76633219240696   -0.04995325785066   -2.16517939342654
H         2.98043133121382    1.89880780864207   -2.15287505787280
H         5.48993618355466    1.87040833946839   -2.39122040126994
H         5.73481237404706   -4.64233956521854   -2.10605039194371
