26
 energy: -46.149508551642 gnorm: 0.231738662737 xtb: 6.4.1 (79825abcba525fcdf90b791dcacef51065a7a4e7)
C         3.55235932301284   -0.46018033921635    0.99403948883662
C         2.43499504789122   -0.04028601362897    0.01374130321067
C         1.27793768662807   -1.00080487176170    0.23518929861062
C         0.22948615767172   -1.77386677398286    0.29141605817693
C         2.02872441492321    1.34598076211894    0.37451231847072
C         1.69700733249645    2.47636528470622    0.59567677569907
C         2.85487728659528   -0.07280747759326   -1.52071035680687
N         3.75008090199394    1.07422753393977   -1.75233300350638
C         4.98672427831178    0.94753498211818   -2.31177518628150
N         5.51834738097973   -0.16573667217193   -2.68209081141931
C         4.78993921423732   -1.32070707470656   -2.47753637059530
C         3.55318493844726   -1.36817421296904   -1.94881292452172
S         2.66350102391793   -2.82538393240470   -1.60449610620553
N         3.82621493139679   -3.97320480086904   -1.89735042991859
C         5.03863077097396   -3.80790935040106   -2.30941755096731
C         5.58771195746662   -2.52834778623699   -2.84332181948372
O         6.65783491448648   -2.66176747282002   -3.42443285727569
H         4.29461656479104    0.33097528766750    1.16025898902099
H         4.06755124247526   -1.39753553166158    0.75694791180626
H         3.02515489998499   -0.54594288032007    1.95108712784174
H        -0.64226227797435   -2.30835050357999    0.59316667159008
H         1.60628230511224    3.50702654951707    0.86320721080634
H         1.99005371896533    0.08916146588353   -2.18033526844073
H         3.54297789649911    1.91719315494899   -1.22489179241863
H         5.60086541623796    1.86418494777640   -2.27741005829595
H         5.66846044761800   -4.69490057714936   -2.48065293939743
