26
 energy: -46.152954717001 gnorm: 0.223515807160 xtb: 6.4.1 (79825abcba525fcdf90b791dcacef51065a7a4e7)
C         3.67334235464436   -0.23739029377985    1.05002221134717
C         2.51104294848206   -0.04463842620645    0.05117011150741
C         1.37672680121321   -1.00225091859265    0.37785444116746
C         0.21528155466055   -1.59444282254925    0.39761476424179
C         1.89564098117943    1.28967223724133    0.29167505683199
C         1.63500031900075    2.45048240501244    0.43763850149912
C         2.83945645736020   -0.13600767254664   -1.50308111671754
N         3.68787962112016    0.99911976820617   -1.90605966624162
C         4.97962343585662    0.89128451399124   -2.32805833073856
N         5.57744649287314   -0.22474318926272   -2.56516657841582
C         4.84120650816913   -1.37476039552430   -2.36074369073100
C         3.57111289673817   -1.41732262589928   -1.91755814815427
S         2.66494175426763   -2.88766667342785   -1.69284957119169
N         3.64534220809556   -4.07324082269600   -2.31605813633307
C         4.86248610866205   -3.83424204161445   -2.67454714423518
C         5.67471975417355   -2.58454987853194   -2.62588802898428
O         6.89805272426891   -2.52322852155990   -2.60717613304367
H         4.26164474432528   -1.13378290867890    0.81575197946458
H         3.17485788089353   -0.35431035825980    2.01858445572479
H         4.35154245505648    0.62118993224333    0.98579979273309
H        -0.57758186749291   -2.24345483911870    0.69227156647089
H         1.32654680081850    3.40351533130882    0.80999704596931
H         1.87108235380891    0.01694638533691   -2.00119296963495
H         3.32489444041375    1.93020937914164   -1.72442591703889
H         5.50560914233228    1.84752810669155   -2.49399412273380
H         5.45463661711848   -4.58811025429689   -3.21658119203943
