26
 energy: -46.154861803762 gnorm: 0.215643810819 xtb: 6.4.1 (79825abcba525fcdf90b791dcacef51065a7a4e7)
C         3.69299110474877   -0.15319322318777    0.99201418608355
C         2.47688685374143   -0.04736322352826    0.04560562801270
C         1.48004027629928   -1.16358996061274    0.31159846824200
C         0.42803607306152   -1.84085940911770    0.67851808610046
C         1.83517218076335    1.26389346976640    0.33844567577301
C         1.28570624515080    2.32743925258225    0.27781015889636
C         2.99171897764399    0.03160474109345   -1.45792773851230
N         3.97006514408912    1.12013327935721   -1.62725663545918
C         5.10324480706484    0.90914293585165   -2.35506177415993
N         5.52873845425548   -0.26014887776327   -2.68799174889095
C         4.83618107817170   -1.38943401089137   -2.29881702012005
C         3.59895221327309   -1.34022075072077   -1.77136509416666
S         2.65808832044585   -2.79436588812166   -1.58754792687441
N         3.51115442793557   -3.99319080287262   -2.35582981856793
C         4.72931121124253   -3.86024405232850   -2.76263845890703
C         5.57160703960153   -2.63272946064550   -2.67564789418853
O         6.76392670297964   -2.61656027759228   -2.95630136495151
H         4.35800192890356    0.71283024814821    0.88126261563252
H         4.25296581875961   -1.05626392323713    0.72525301816370
H         3.42309046484320   -0.26143504828700    2.04874369117340
H        -0.37374334946635   -2.50577311915117    0.90591891370655
H         0.91573052550422    3.30642105054675    0.49409426681462
H         2.14785884183043    0.21164141235992   -2.13965028527240
H         3.53864439348198    2.03025519671220   -1.49598914505646
H         5.70224113178863    1.81077018044612   -2.57155466348915
H         5.10968414575886   -4.79842736853440   -3.19609999412159
