26
 energy: -46.149420040678 gnorm: 0.228807644193 xtb: 6.4.1 (79825abcba525fcdf90b791dcacef51065a7a4e7)
C         3.65853101113405   -0.51994058005278    1.02374430050729
C         2.49171974863762   -0.07910323888967    0.11269402352479
C         1.27449529944491   -0.97953808306568    0.24685497573466
C         0.20265358457045   -1.72183628263982    0.23323581200472
C         1.88642560060986    1.23366127270396    0.46936679034103
C         1.67594139163499    2.40730967613887    0.59169804630642
C         2.98192088500964   -0.06229896727392   -1.40101700988455
N         3.79285555181296    1.13758301600554   -1.67193408460035
C         4.91029277980048    1.01434085672968   -2.44294562836017
N         5.45487394437782   -0.10105304601408   -2.78712340933333
C         4.92061093005541   -1.31600738989810   -2.40656256360822
C         3.71395391014615   -1.34479522759490   -1.81115276574611
S         2.72756272688149   -2.76303783210619   -1.58940506650224
N         3.58365129227746   -4.02272683954382   -2.24929596553473
C         4.77079547010179   -3.81092948264770   -2.71071186606681
C         5.63624493163976   -2.59684354858155   -2.68217663353136
O         6.85343211966495   -2.70486463827168   -2.76843656217657
H         4.51933866324548    0.15687153883878    0.95000488992478
H         4.10561621052970   -1.46479485901282    0.69566640849689
H         3.34816108616068   -0.47737990324742    2.07402949679360
H        -0.66046442237952   -2.34755109857092    0.24664842386253
H         1.27750905547503    3.36751492705312    0.83933439063565
H         2.03015328391766    0.10461808312055   -1.92593214110878
H         3.39060951535000    2.03862807521344   -1.43111704742862
H         5.28978249822042    1.96717104026053   -2.85123431067734
H         5.20269469906255   -4.66680547311369   -3.25265259556357
