26
 energy: -46.151771454813 gnorm: 0.225393606267 xtb: 6.4.1 (79825abcba525fcdf90b791dcacef51065a7a4e7)
C         3.92221445208062   -0.08425336732260    0.81406890652465
C         2.59346043588999    0.03924281418636    0.03627707520161
C         1.59160872122199   -1.05149100720987    0.37834473565570
C         0.64484829464208   -1.91243769560246    0.62824920278593
C         1.86686514799416    1.31921720844507    0.26138137784152
C         1.28443417524056    2.35958033389940    0.38441724961006
C         2.85090635096095   -0.03087697142282   -1.53238651038471
N         3.74319448805478    1.06018030286491   -1.96150628063229
C         5.02821115221142    0.88345970719530   -2.38080974103446
N         5.59725979046953   -0.26854516238885   -2.47135795917767
C         4.87470851598420   -1.41110829812592   -2.19056136331663
C         3.56515819503887   -1.33929506942160   -1.88842968254299
S         2.54719725586044   -2.73540533153862   -1.66892259746772
N         3.41849511966712   -3.92441544161676   -2.43197896348130
C         4.66009911797762   -3.86666372574088   -2.78149049216428
C         5.55139263037206   -2.71108629950345   -2.47480109930485
O         6.75883451410599   -2.82017756304291   -2.29919589728243
H         4.30731063384628    0.92296561441285    1.01830605350304
H         4.70692930479950   -0.57007972040000    0.22375946410331
H         3.83059167372498   -0.55609968969675    1.79905936515517
H         0.01204028760499   -2.71539414850369    0.93071668529007
H         0.78909805342354    3.30635992772784    0.40221405236636
H         1.90074170265333    0.03569351417421   -2.08194476005484
H         3.26601401418080    1.95669834177510   -1.97670895444880
H         5.56585149260897    1.82899141219613   -2.56925101337868
H         5.27087830743398   -4.68857436087421   -3.18667205684906
