26
 energy: -46.151394782230 gnorm: 0.229537120454 xtb: 6.4.1 (79825abcba525fcdf90b791dcacef51065a7a4e7)
C         3.83384894470731   -0.14970237012424    0.89282318255905
C         2.57488293837487    0.12036633317514    0.03967244212910
C         1.50625345454089   -0.84016603404703    0.53548091036569
C         0.79359091194345   -1.80631861756283    1.04410459606923
C         2.06151645866676    1.50894461437840    0.19858228735841
C         1.52075660738379    2.57579235519525    0.12026377736529
C         2.71272900420866   -0.15301731359270   -1.52178856823186
N         3.54222729827809    0.87595922071515   -2.17283984554890
C         4.90488354019613    0.85645672329843   -2.20602149941227
N         5.54185840105276   -0.25265930430551   -2.05352484487892
C         4.82613458800079   -1.43338613588689   -2.05461359188373
C         3.49062398464141   -1.42162903111853   -1.88837291819541
S         2.51331918735690   -2.85533765616550   -2.03972227894850
N         3.55200622621325   -4.00676221987448   -2.63176175181236
C         4.83062815459721   -3.85245759655463   -2.72335928239523
C         5.63302227828155   -2.65929909568998   -2.32793778113138
O         6.85040139196932   -2.58092104004680   -2.21613897001550
H         4.73261382324278    0.11751881857529    0.32245795728689
H         3.88615878295294   -1.23752881529544    1.01184921268572
H         3.87079964457735    0.35966755170730    1.86257409009369
H         0.11784305864648   -2.62094336777818    1.17225678169164
H         1.13485965514176    3.56270003862348    0.25869416704790
H         1.68877459805587   -0.22189405708159   -1.91679760162065
H         3.00271033741767    1.67169112275569   -2.50057314586296
H         5.39187766654937    1.81547704681766   -2.45444492820444
H         5.39376897595604   -4.69927799196098   -3.14588507231617
