26
 energy: -46.149010432523 gnorm: 0.224350589770 xtb: 6.4.1 (79825abcba525fcdf90b791dcacef51065a7a4e7)
C         3.72645948169359   -0.16557570557434    0.82584491227559
C         2.46786801706299   -0.01095926901622   -0.05610744621452
C         1.48153524114051   -1.11372474915601    0.29242282127092
C         0.68357785085077   -2.02209810772194    0.78043776384037
C         1.93320832572147    1.33210175232170    0.30064625812749
C         1.56605700747023    2.45624066979864    0.49617296897714
C         2.76614353092498   -0.01439842423904   -1.61909193405678
N         3.66156102716592    1.09278180410992   -1.99738720871117
C         5.00614842215628    0.90347434192059   -2.11805538757435
N         5.59160344828658   -0.24345197740050   -2.14860014989322
C         4.83939423894277   -1.39873434640268   -2.07190891567706
C         3.50732230577232   -1.32752698882639   -1.89336869752473
S         2.54314278917285   -2.73974611804242   -2.22434707384318
N         3.52180338289385   -4.07220302659553   -2.37247557652939
C         4.80204067201095   -3.91079738446158   -2.32758954657724
C         5.59076141621515   -2.64710128533613   -2.39696854914625
O         6.77389375398540   -2.61348650078979   -2.71275630150084
H         4.03534454747677   -1.20564073532770    0.99124353741975
H         3.59793278357219    0.32593369979967    1.79649895827498
H         4.61854537546869    0.32315618605169    0.41772264169256
H         0.05269349116162   -2.64736706666672    1.37009467008033
H         1.23164578112455    3.38162460983441    0.91318602876862
H         1.79984394441691    0.08914408037781   -2.13368187652097
H         3.31458029157843    2.03728634814574   -2.13592403563336
H         5.58291180654588    1.82413196826855   -2.31383839739977
H         5.52247485651483   -4.74370327021005   -2.32925754683970
