26
 energy: -46.153268011408 gnorm: 0.224555798258 xtb: 6.4.1 (79825abcba525fcdf90b791dcacef51065a7a4e7)
C         3.85451325286904    0.16378801107773    0.93462617721418
C         2.63145005776324    0.04217075240032   -0.00085463768432
C         1.82923922198762   -1.17872190691985    0.41902191266699
C         1.07569769262756   -2.14841076404787    0.85710346185777
C         1.67258398538073    1.14837737942215    0.27086191395616
C         0.89713132124014    2.05694496078477    0.37034671849352
C         2.99477423585021    0.07957705233967   -1.54956279201328
N         3.95954826415200    1.16659019766063   -1.79110237729975
C         5.21320601543487    0.84912433025441   -2.22223003571537
N         5.73026823545377   -0.32487572249653   -2.33842422561627
C         4.89266820011274   -1.41879674697015   -2.24819915687495
C         3.58647361699461   -1.27392702435551   -1.95797302073677
S         2.39400272099766   -2.53652364839205   -2.08993750533564
N         3.23078902839650   -3.91858243859031   -2.47054517950735
C         4.51538298500166   -3.89550937177153   -2.59845160157932
C         5.48602927625099   -2.77099164441412   -2.46758011391010
O         6.69060116741900   -2.99032925065205   -2.50696993742152
H         4.46872787485591    1.05819295207666    0.76945305942521
H         4.61658366120804   -0.61357332924359    0.81122470240268
H         3.46993538052657    0.35409806085286    1.94315076392903
H         0.56932808593739   -2.94920364834716    1.34597174750091
H         0.34568732931300    2.95538920599074    0.54577097360064
H         2.05779290607529    0.25933073216300   -2.09638393737872
H         3.53389679627655    2.07711518077228   -1.93753326196222
H         5.84131127129122    1.73863630462056   -2.40347487351690
H         5.03477986892050   -4.84546580396376   -2.79987172039353
