26
 energy: -46.150148608511 gnorm: 0.216274003864 xtb: 6.4.1 (79825abcba525fcdf90b791dcacef51065a7a4e7)
C         3.74942216863818   -0.10544041160856    0.94224097354970
C         2.53837741860230    0.16506545208334    0.02246061723573
C         1.58135706220573   -0.91163220678902    0.50748808920104
C         0.48754365083498   -1.62091515867572    0.53043807581561
C         1.93763028969539    1.51088360077628    0.23417630492179
C         1.25190472806035    2.47698322501068    0.41625069697588
C         2.89075537497848   -0.09844909425793   -1.50668637031969
N         3.74278319720334    1.01344076487170   -1.96327964424237
C         5.02728296292770    0.86552520497206   -2.39513001202282
N         5.53975293010363   -0.31163495823758   -2.49904847061755
C         4.85693391399590   -1.47576506554942   -2.20760911294682
C         3.56988473924912   -1.43710533527198   -1.81598096258371
S         2.56631383837830   -2.85920499863195   -1.75250098856548
N         3.60514132021304   -4.06232616502360   -2.23051453648071
C         4.85533962276722   -3.96783731981527   -2.53897867963786
C         5.63664321973006   -2.69789439234553   -2.56410560728816
O         6.80945737256793   -2.65861059887252   -2.91569876257109
H         4.65229820408359    0.36532523219332    0.53273329755200
H         3.94823486417142   -1.18090675125492    1.00639357403278
H         3.50049915549839    0.20422181183392    1.96370391522826
H        -0.06365446821866   -2.37516308131831    1.04421073401597
H         0.62354723964970    3.32464565870806    0.58566579214456
H         1.91811101896366   -0.02384390483424   -2.01428443279623
H         3.52611066929466    1.92500352654885   -1.57112753777792
H         5.55940570301278    1.79192571262187   -2.67302378134088
H         5.33104554279351   -4.89577588661009   -2.89308926619151
