26
 energy: -46.151597309688 gnorm: 0.230724034753 xtb: 6.4.1 (79825abcba525fcdf90b791dcacef51065a7a4e7)
C         3.74199019345897    0.06713973145321    1.04809387350125
C         2.55599351164838    0.11164708768564    0.05954461084191
C         1.50144282501315   -0.91772773803753    0.43200633409695
C         0.47227191344585   -1.65633244181713    0.74072478234288
C         1.85550011705369    1.42236383123828    0.15052670680515
C         1.20957076071449    2.37323678067116    0.49013678730934
C         2.93133098171558   -0.10653237987724   -1.47127873696265
N         3.75901779562135    0.99339209279178   -1.99647257180410
C         5.08125807435912    0.75143621160897   -2.22330157073608
N         5.70403163384685   -0.37164501310591   -2.32316258565331
C         4.86213378813704   -1.46508346444625   -2.27868806620706
C         3.59833081446502   -1.44251212365740   -1.81645941207577
S         2.56592854194914   -2.84333635209394   -1.88986738372036
N         3.58023941757843   -4.08567685870164   -2.31756300093371
C         4.84714923096791   -3.97566726291602   -2.54097176493290
C         5.61729336673414   -2.70223548582943   -2.63621474608355
O         6.74653270068226   -2.63894438317419   -3.10681729792451
H         4.21125859806835    1.05888837128724    1.02119107811781
H         4.55403560094933   -0.61124793509305    0.76411797301712
H         3.51977969752331   -0.19617083645437    2.08854085916173
H        -0.42988378700865   -2.14917147731489    1.02338429010371
H         0.63712196287136    3.26274624110620    0.64226008849651
H         1.94910512193258   -0.04839722230835   -1.96230972631028
H         3.52262787979010    1.96045162354345   -1.79499653553492
H         5.67188745455944    1.66315662318502   -2.41956743028580
H         5.39626343060172   -4.91687363176109   -2.70023437501368
