26
 energy: -46.147542955227 gnorm: 0.216337116529 xtb: 6.4.1 (79825abcba525fcdf90b791dcacef51065a7a4e7)
C         3.70610444737495   -0.29054699159416    0.64943988256138
C         2.43591485502459   -0.00038894779170   -0.18015363560545
C         1.35365841768215   -0.97442641985233    0.25618272352474
C         0.57579130692271   -1.76535606256605    0.94130301270057
C         2.04081879109726    1.40593823234931    0.10809986045217
C         1.80024100406774    2.54187296550958    0.40557878623792
C         2.79880411634402   -0.02887200755049   -1.72915355010440
N         3.65992348403162    1.09429975429927   -2.13864897081887
C         4.97756726999711    0.89457548141603   -2.42542146176690
N         5.56157453527579   -0.25084560882716   -2.34746891905476
C         4.83149735766397   -1.40814282181802   -2.16300189277763
C         3.49954347816234   -1.36976024108699   -1.97382366783302
S         2.50952242237155   -2.78867381810945   -1.77358810571488
N         3.57756533880829   -4.05539377580263   -1.87291034954448
C         4.76488675040166   -3.92858541179315   -2.36409419248053
C         5.57637942788442   -2.67827430909726   -2.40907738846209
O         6.78864792146234   -2.65645733306703   -2.58395768781054
H         3.87126905661504    0.39592434235679    1.48966587533829
H         4.64474598212307   -0.19218710304313    0.09307014180688
H         3.69125286514468   -1.32694768790365    1.00566021199991
H        -0.18577703138201   -2.46678747293219    1.19562419382498
H         1.69742825896440    3.57163991037265    0.67217919995632
H         1.85525249993967   -0.05115746147812   -2.29348720355205
H         3.30884475203705    2.04508818671232   -2.07215085042752
H         5.60995391598288    1.79693369276887   -2.49201159304085
H         5.41707380145648   -4.81438545631203   -2.41673208497106
