26
 energy: -46.152346968958 gnorm: 0.215867203748 xtb: 6.4.1 (79825abcba525fcdf90b791dcacef51065a7a4e7)
C         3.78307293377272    0.06206416512259    1.03352409650830
C         2.54144395471761    0.07423505005833    0.11482499245200
C         1.40869006483093   -0.87822365956474    0.46139167161345
C         0.59675783590678   -1.83621668997827    0.81217960531145
C         1.85469217047743    1.39157961366429    0.21443637920162
C         1.23982827136232    2.41877655870375    0.27383283288499
C         2.96272534891584   -0.09906286430601   -1.40977018576245
N         3.83294083603506    1.02237490000983   -1.80452355804998
C         5.05036178415570    0.85029051227731   -2.39323961359028
N         5.60815084625306   -0.29918903481105   -2.55663695400236
C         4.90970556084522   -1.45413087620157   -2.26567110228690
C         3.63490935502220   -1.40862360375719   -1.83650158803631
S         2.60596414732230   -2.81273367494170   -1.77907013961240
N         3.51091234255804   -4.07835603453895   -2.35736836217524
C         4.76755818038435   -4.00484338224781   -2.64461597241932
C         5.56957370982139   -2.74809124976215   -2.61045656067167
O         6.76869664517369   -2.70020516560818   -2.85635310346068
H         4.32349553036987    0.98254822601536    0.77827035218697
H         4.38121305326169   -0.85102510809520    0.93989576933277
H         3.46465772810270    0.08296985574216    2.08205383192204
H        -0.32986126290981   -2.35947305066351    0.87738278544863
H         0.79203716800481    3.38069513034761    0.40135538108394
H         2.00343586870815   -0.06144711413554   -1.94606070371133
H         3.40769245740604    1.93541629614169   -1.93565764228978
H         5.55339529759003    1.79647291843524   -2.65836900869850
H         5.21091249716003   -4.98771497338336   -2.86858202617282
