26
 energy: -46.146227672231 gnorm: 0.221019130928 xtb: 6.4.1 (79825abcba525fcdf90b791dcacef51065a7a4e7)
C         3.61066004898280   -0.20492394365598    1.01830590221176
C         2.47860409297518   -0.06623275760357   -0.02333355732979
C         1.29099616149310   -0.97516776827427    0.24840524064819
C         0.16042416767737   -1.49906550798405    0.63229960850907
C         1.94410481722081    1.31027263545494    0.16769150884569
C         1.23982664706970    2.26135205081684    0.35784756908248
C         2.96871624769807   -0.05823682549393   -1.53714555930643
N         3.84363394810449    1.05339012201252   -1.94888870660851
C         5.07890901647757    0.85985642133337   -2.49198501813245
N         5.61501656507189   -0.26941083875476   -2.80258880262050
C         4.92834723070436   -1.39695901139583   -2.39824000647802
C         3.71898784253208   -1.36682031171863   -1.80840588709773
S         2.82337172597956   -2.79979389053806   -1.38649333045358
N         3.57448957709194   -4.05721514193573   -2.16743750291489
C         4.76948700430502   -3.90372924107306   -2.63165435948132
C         5.64307521085840   -2.69701398350235   -2.56454523800616
O         6.85217290254882   -2.63832360021415   -2.75240745593857
H         4.28877194777473    0.65376692135210    0.93277103884160
H         4.21419716260524   -1.08221473461031    0.76067494567263
H         3.31405998132517   -0.26187242347482    2.07188321936915
H        -0.83006763885298   -1.88555850585175    0.71117145030836
H         0.75231961229021    3.19273511510053    0.55001596481003
H         2.08162450163402   -0.00327539433366   -2.18468416247247
H         3.44491496510028    1.96896332544729   -1.76334679258560
H         5.55028479282018    1.82176996056923   -2.75867712285035
H         5.09293588494341   -4.81047867443723   -3.16639420038892
