26
 energy: -46.148802379252 gnorm: 0.224740944165 xtb: 6.4.1 (79825abcba525fcdf90b791dcacef51065a7a4e7)
C         3.75883278259637   -0.22821681313416    0.79941608575370
C         2.48966466289999    0.03711300022522   -0.03999506739161
C         1.32556237979836   -0.85418335896325    0.36109611280548
C         0.64265525600145   -1.68718655846778    1.09579354263633
C         1.86974636812862    1.37640481369449    0.15735209701528
C         1.46205614863693    2.47169729727628   -0.10880986230882
C         2.79995033350603   -0.09917069022047   -1.59468160239288
N         3.65629679962212    1.02940374651575   -1.99930285225785
C         5.00507361133240    0.84809861441777   -1.92029044407996
N         5.60786529572084   -0.28488164772357   -2.03041976746931
C         4.85964432684253   -1.44010985314040   -2.13992214836431
C         3.56203803268967   -1.41538287988914   -1.78359474161307
S         2.63338532456390   -2.88779855503714   -1.72748833872675
N         3.57474428857985   -4.10124355530020   -2.35721411579052
C         4.79945652271848   -3.87685854724047   -2.69898210634031
C         5.61685777147580   -2.63179621691843   -2.62484257253163
O         6.79343040710950   -2.54329634203713   -2.95423380843435
H         4.64492740252340    0.24195033706382    0.35412838267582
H         4.06204770338547   -1.26771966542636    0.96604267213401
H         3.60980256894531    0.26680334507369    1.76584504784301
H        -0.14044310480060   -2.21235178750433    1.59341797380119
H         1.12767461396646    3.48135580700124   -0.21294871017254
H         1.87756076556585   -0.08068883992966   -2.19310843205480
H         3.30184667496891    1.97441202479187   -1.88527922558225
H         5.54677578919969    1.80956226414238   -1.89301669188958
H         5.23775815537824   -4.71364803969745   -3.26505226904730
