26
 energy: -46.157835945517 gnorm: 0.223312007430 xtb: 6.4.1 (79825abcba525fcdf90b791dcacef51065a7a4e7)
C         3.73590144523849   -0.41930851002682    0.70268461146079
C         2.48767078908395    0.03033988297285   -0.08822325506565
C         1.29137002124391   -0.85664902793378    0.21596841897950
C         0.28341095614035   -1.59059660691756    0.59725077509957
C         2.17667781160336    1.44471937217130    0.25784198677624
C         1.81097141751005    2.50951523771871    0.66916631647600
C         2.72080652309502   -0.10444273801525   -1.65646495325784
N         3.52846708491203    1.03748805891591   -2.11950529442258
C         4.87374106176175    0.91236412472596   -2.30087598593432
N         5.52800676559644   -0.19156608931940   -2.41225387582459
C         4.80818827609150   -1.36241558833289   -2.28053296789775
C         3.51229940625196   -1.39047803242108   -1.91825228998686
S         2.63690409506108   -2.88151324017831   -1.70837431478157
N         3.76320904694067   -4.07898585570386   -1.93784439559641
C         5.01029050814785   -3.91824692051398   -2.23114438761741
C         5.62271950347741   -2.58999476401887   -2.52183088255709
O         6.77190147527416   -2.52691623980443   -2.94142103390094
H         4.71035806820519   -0.11691766991124    0.29833818915973
H         3.65633681485507   -1.50996832808104    0.76902105091426
H         3.63929420323372    0.07044885128366    1.67841237432036
H        -0.48537859204305   -2.31745498730507    0.72882261531495
H         1.51239704654371    3.51742804001042    0.86160158618842
H         1.75976479480501   -0.13187727174693   -2.19022979746643
H         3.11113204182859    1.89273267946918   -1.76444892165536
H         5.42023041271916    1.85462983977119   -2.47999095398165
H         5.64112450285491   -4.80189082770865   -2.41548734859795
