26
 energy: -46.152558228515 gnorm: 0.218445307495 xtb: 6.4.1 (79825abcba525fcdf90b791dcacef51065a7a4e7)
C         3.95136525211321    0.09912203119732    0.92291244809126
C         2.66556821877493    0.13455294287816    0.06776956704908
C         1.71076821934473   -0.98927487322759    0.43626035814217
C         0.73518642378166   -1.84069243148267    0.28340393142686
C         1.91198830460262    1.36873819756067    0.42252471662027
C         1.08140852534995    2.18897021428313    0.69469339561878
C         2.89640784413491   -0.01113264456299   -1.49983670551300
N         3.73635498070853    1.11527167480229   -1.94304094900791
C         4.99142668679706    0.82253164575273   -2.38735129954424
N         5.59886988923883   -0.31268455735587   -2.42513342671941
C         4.84694691210432   -1.44734884025636   -2.19377567796908
C         3.53730164471750   -1.34416152578506   -1.90129592261870
S         2.49056772746071   -2.73081904512677   -2.02409958424801
N         3.44974448821332   -4.02415060447581   -2.42712991339648
C         4.73085433957490   -3.98143413029844   -2.58207155299423
C         5.54668766705376   -2.75915412965654   -2.32855768678726
O         6.76910092322229   -2.81374578302472   -2.38669182924339
H         4.36759546336439   -0.91131499319322    1.02426033028206
H         3.68149639768265    0.48837648253271    1.91079992395518
H         4.69626083307425    0.78747939302630    0.50753958576084
H         0.10736649225957   -2.69611584365745    0.38715630925650
H         0.38865896825167    2.95436106380269    0.97099234840041
H         1.94671346043380    0.10997556268396   -2.04082852334131
H         3.46032693299591    2.07879025109994   -1.77836735426960
H         5.52571486860331    1.73001329658581   -2.71842629343874
H         5.28062773003780   -4.91201622117871   -2.79308482665864
