26
 energy: -46.148748067520 gnorm: 0.215390977908 xtb: 6.4.1 (79825abcba525fcdf90b791dcacef51065a7a4e7)
C         3.72268525898670   -0.18174164734652    0.83833425309406
C         2.42836677832016    0.00297169706408    0.01588707159691
C         1.35248508019910   -1.00146279274406    0.39537012634148
C         0.09447528545616   -1.34348309524419    0.37368472886868
C         1.86979075079496    1.37506134154393    0.16525233064120
C         1.63594426346967    2.50796790763475    0.47919126911695
C         2.76889583275217   -0.18597864372376   -1.52691505156545
N         3.57413228813462    0.96306445123391   -1.97638374939400
C         4.93253137699166    0.84944306489478   -1.96391377367021
N         5.57154455184363   -0.23528300488270   -2.23624092947046
C         4.87496554768368   -1.42578889771783   -2.29829748149244
C         3.59740338880350   -1.42747131215030   -1.87498335883794
S         2.81676440944636   -2.94349472085676   -1.52026161307545
N         3.84322177370789   -4.12363513389096   -2.07597188891741
C         5.04199525791191   -3.93828825748848   -2.51830968587003
C         5.65475840254848   -2.60416438497584   -2.77995164764140
O         6.66647199981393   -2.49911729701363   -3.46263363558627
H         4.25816528605401   -1.08549875951137    0.52055101324626
H         3.34113781876936   -0.37237914701070    1.84746694484944
H         4.39650545566962    0.68260040988686    0.82742329426921
H        -0.87134803422766   -1.79338457220789    0.41170594348087
H         1.24925522792638    3.45337273337185    0.79343245057009
H         1.81336253870234   -0.12755574293461   -2.06802655187486
H         3.09563744584410    1.82959811216744   -1.74870188974764
H         5.55634293099728    1.75077182589044   -1.83328808639832
H         5.59378562386917   -4.81136766439404   -2.90043551619125
