26
 energy: -46.152491615593 gnorm: 0.221440615488 xtb: 6.4.1 (79825abcba525fcdf90b791dcacef51065a7a4e7)
C         3.79135410065558   -0.39325791948113    0.88275233599395
C         2.55956150173001   -0.06089234889399    0.01210958123725
C         1.37628257756551   -0.96350866130607    0.32122477483043
C         0.42808767445252   -1.85690521382601    0.26825510607883
C         2.18108776473116    1.34603675974684    0.31911974296601
C         1.90422796857702    2.42449801975860    0.76295425187897
C         2.75059766798779   -0.08313757829154   -1.56741913325234
N         3.44354085374267    1.01494772703846   -2.26367072626561
C         4.80307915384787    0.94848543376947   -2.33818094199635
N         5.54014016533277   -0.10784974142545   -2.33292511929928
C         4.84842718766273   -1.29379192385314   -2.18646047350143
C         3.51434859998371   -1.33476984113112   -2.01349262393038
S         2.55167498992663   -2.78539642074733   -1.96355514325706
N         3.65877298012715   -4.02176907909191   -1.93394574840305
C         4.91626255707996   -3.83831673694895   -2.16228597038045
C         5.60598001824222   -2.55043579104654   -2.46140832215090
O         6.77729318126056   -2.54099765015123   -2.82000333789667
H         4.22458085963191   -1.32292249084027    0.49218823043766
H         3.48040998861832   -0.57639401561064    1.91718204195848
H         4.51351595302938    0.42524963295911    0.78392146698255
H        -0.26676027455306   -2.57412107908616    0.64169767957623
H         1.59573795140605    3.40543397190516    1.05392636798896
H         1.76302899231005   -0.11744340393396   -2.04990228038477
H         3.07906714449333    1.93833412051506   -2.04874420534587
H         5.33608761767766    1.89472719835430   -2.53598377219142
H         5.48516266894342   -4.78120686661368   -2.17072830030479
