26
 energy: -46.151448861351 gnorm: 0.225892918058 xtb: 6.4.1 (79825abcba525fcdf90b791dcacef51065a7a4e7)
C         3.83146785171140    0.15497647667840    0.92375117993491
C         2.55785090092209    0.10664377658272    0.05119030006258
C         1.67140787422153   -1.08516991145157    0.37401578472234
C         0.90891303758969   -2.01824023484974    0.87202998004378
C         1.88227944719759    1.42324198072452    0.21587025315220
C         1.07653315047184    2.30194646419198    0.33984781703254
C         2.89419027056855   -0.01459651207904   -1.49931840093137
N         3.81991492035775    1.05737924800125   -1.90506427152997
C         5.15237312098765    0.80102686683002   -2.03602989070120
N         5.66914547648423   -0.37160396732816   -2.16646691571796
C         4.79410125599772   -1.43800896915399   -2.22525111597300
C         3.47379652519993   -1.34961177720536   -1.97960078302708
S         2.44701697336211   -2.75643283964481   -1.99099971779705
N         3.43672441775054   -3.99261480572502   -2.48848674821180
C         4.71673863535303   -3.95738559778781   -2.65400582099693
C         5.51057290871707   -2.69676972929878   -2.58695007917017
O         6.71970506395318   -2.69910225772206   -2.78354097909846
H         4.30372965618321    1.14470823914385    0.96736059398811
H         4.57843278568162   -0.55431221262390    0.55062542641236
H         3.67092651174869   -0.27428045921262    1.91934389418131
H         0.29069748119387   -2.75681272125190    1.32918621425454
H         0.61497295936010    3.22187960040878    0.62751327985066
H         1.96984707419771    0.15532309577518   -2.07026125620561
H         3.52524792103698    2.01820354590402   -1.75787409559919
H         5.81464938949117    1.67108895879696   -2.18761998631146
H         5.14727415132940   -4.91284698454837   -2.99237413324017
