26
 energy: -46.150232411856 gnorm: 0.226341631660 xtb: 6.4.1 (79825abcba525fcdf90b791dcacef51065a7a4e7)
C         3.80773644073849   -0.22864512813493    0.84899098002244
C         2.55005666462963    0.02538200259027   -0.01095698040267
C         1.37886507986536   -0.82677524348453    0.45008068832112
C         0.43514080056458   -1.66786240767757    0.76944510223877
C         2.08574893912468    1.42764525074305    0.17618803767181
C         1.60101037387766    2.52328854308837    0.13994697363147
C         2.76192033870689   -0.14302824566780   -1.57896604358465
N         3.57116599468897    1.01936304281351   -1.98479340567801
C         4.92442381036045    0.89034069620122   -2.08657709510853
N         5.51271781564100   -0.25253562948548   -2.16948926965493
C         4.78452574284729   -1.41706184996180   -2.31088444197866
C         3.52226170468233   -1.44688887959394   -1.84487735715606
S         2.62906281885790   -2.93642853818114   -1.71442022485308
N         3.71657766169263   -4.14365119162866   -2.05366196429259
C         4.88693707196055   -3.91067028769241   -2.54666582340590
C         5.60174933457265   -2.60918796162557   -2.68453851599337
O         6.76089884704706   -2.47208785431668   -3.05633141801668
H         4.51783008617770    0.60386390720190    0.76415182887568
H         4.37804741204039   -1.12564659903051    0.58365413163668
H         3.39011654403091   -0.33074358081031    1.85716230897445
H        -0.48317777371719   -2.12281647934115    1.06334885027877
H         1.23524120439680    3.52726190888113    0.12215357743117
H         1.83538730769295   -0.17690122882432   -2.17027639404117
H         3.22178309527577    1.94790717833385   -1.76704514961531
H         5.59187070024324    1.76734484877756   -2.02352295834025
H         5.43333127422206   -4.76389326248393   -2.97820300677192
