26
 energy: -46.149120317278 gnorm: 0.210716238526 xtb: 6.4.1 (79825abcba525fcdf90b791dcacef51065a7a4e7)
C         3.61239761490958   -0.39561253776605    0.69442383851979
C         2.36431187468479   -0.03824891729046   -0.14245843077348
C         1.26950238686164   -1.07642119830003    0.04195396515744
C         0.42909649398635   -1.84534638736911    0.67638974387351
C         1.98086652569772    1.30693588154380    0.36783034949526
C         1.78670261716429    2.39065776294656    0.84171468512002
C         2.80757463388398   -0.00433938449248   -1.67028987233108
N         3.75924257373321    1.11369943502978   -1.79294880611530
C         4.92488225179372    0.95281048037184   -2.48121640112959
N         5.42746291078531   -0.19433598426431   -2.78221179713463
C         4.80092194508424   -1.37643005611130   -2.44092360517118
C         3.50996644756476   -1.30756488345620   -2.06668538713029
S         2.59212719891617   -2.75982185443650   -1.78020237380266
N         3.68411525801953   -3.99770008049795   -1.95449982606376
C         4.93226611433954   -3.89590415763295   -2.26887394579439
C         5.64647314596326   -2.60573968457230   -2.49069739170142
O         6.85890219968162   -2.49388249065687   -2.62544809093011
H         4.07788698318206   -1.37827146320482    0.54541698283781
H         3.42683154531150   -0.31264126379889    1.77096965292492
H         4.37075418501951    0.38388885109312    0.55836210053487
H        -0.08191698678475   -2.75990052128208    0.87419669055888
H         1.47198368242984    3.37442444412805    1.11597972597643
H         1.88563096156979    0.08527772995759   -2.26295116037862
H         3.47993904391770    2.05021211182185   -1.51616284747960
H         5.47892234629723    1.88856148090054   -2.67097176060304
H         5.49508905906916   -4.84232633284743   -2.25226654027281
