26
 energy: -46.152282832853 gnorm: 0.224887892171 xtb: 6.4.1 (79825abcba525fcdf90b791dcacef51065a7a4e7)
C         3.76876880571394    0.15739050928359    0.89288207685740
C         2.54579461494039    0.16059840476623   -0.05058097463037
C         1.60701024499304   -0.96693760228140    0.34661405434474
C         0.82650362474614   -1.80197439348433    0.97395745041960
C         1.75489127715929    1.41791405562652    0.05226058119580
C         1.22006316962435    2.49013937377722    0.08405472253633
C         2.96357461910045   -0.02353671457142   -1.57486925492601
N         3.87767963226688    1.08977841366968   -1.88417382808769
C         5.16328779768006    0.76613714238025   -2.20163463162458
N         5.63084559030892   -0.42563320640931   -2.34377434531680
C         4.85001558296795   -1.55184305959672   -2.17544888346560
C         3.56475022940656   -1.41518135528783   -1.80024322706874
S         2.44299468790724   -2.74401925791489   -1.89722790102642
N         3.40757437297405   -4.05488018539038   -2.22340221707388
C         4.69390920125618   -4.04536346839531   -2.33442562370215
C         5.53688593290879   -2.83019519163487   -2.52567932929973
O         6.70444886335841   -2.85294724371047   -2.89572410397466
H         3.55070119565116   -0.31729418672147    1.85808822876132
H         4.02477312996084    1.21996945156000    0.96809955030097
H         4.65312598598313   -0.38963235861364    0.54658992835956
H         0.11991864132160   -2.53843723709916    1.28222967757302
H         0.87045571852728    3.49830771748119    0.14268428033590
H         2.06438481881329    0.02475729298319   -2.20604605679644
H         3.56013303285025    2.05269568483378   -1.82391270875637
H         5.88474764236604    1.58594160049777   -2.36292256665534
H         5.23896014493681   -5.00136597250145   -2.37612800366434
