26
 energy: -46.150675976567 gnorm: 0.227617908394 xtb: 6.4.1 (79825abcba525fcdf90b791dcacef51065a7a4e7)
C         3.71800912716087   -0.33797206643897    0.72075223867345
C         2.46017506063409    0.00332124023643   -0.10820556271871
C         1.32748718016907   -0.89888433641065    0.35381249681400
C         0.20725824702663   -1.37981204400237    0.81623269135845
C         1.98736656743188    1.37600624807336    0.22215049172253
C         1.65060158729104    2.42917830313054    0.68489996848444
C         2.77919646793067   -0.08663653545733   -1.66449395725701
N         3.52801292496988    1.06814433369433   -2.19031039862982
C         4.84638516089756    0.84481953216619   -2.45551612721045
N         5.49625702111842   -0.26335343791916   -2.54905646663019
C         4.85205912720827   -1.43066031211072   -2.19019528850360
C         3.52301654750315   -1.38841074452913   -1.98229256036099
S         2.68144236019837   -2.89993706474450   -1.78081607189885
N         3.75490106166472   -4.07460434609679   -2.25304824072130
C         5.01945779440536   -3.89803347877865   -2.44486340846965
C         5.75882783985202   -2.60753400041399   -2.33639805739000
O         6.98204555126272   -2.58820611792046   -2.39979249451632
H         4.58202037559411    0.13742701658209    0.23910689546076
H         3.76806155208063   -1.43123228955955    0.77121737100657
H         3.60608259910908    0.07805907221051    1.72853715702771
H        -0.67249325997623   -1.88334862159648    1.14662612833781
H         1.35437487726256    3.38586848308880    1.05780725106187
H         1.80276596002353   -0.14062603143635   -2.16741280162308
H         3.23608160368422    1.98438704315661   -1.86327473853513
H         5.25058375890470    1.75103062540141   -2.93925408269203
H         5.59523791147174   -4.78453082689964   -2.75366774551705
