26
 energy: -46.150083637899 gnorm: 0.218581369536 xtb: 6.4.1 (79825abcba525fcdf90b791dcacef51065a7a4e7)
C         3.70325596960237   -0.09977032204653    0.93191124741954
C         2.49951379527672    0.12344880022899   -0.00988316851915
C         1.32921506278853   -0.79648645930138    0.29758628629547
C         0.64019431393233   -1.77543017101825    0.81426452959532
C         1.84418150990902    1.44551250808237    0.18920049671402
C         1.17633418214891    2.43904479987781    0.12926169715198
C         2.97631574206969   -0.05215007644661   -1.51777096502484
N         3.88041769339663    1.06199251809210   -1.85245563760555
C         5.14351026326596    0.80887148068862   -2.29837076444591
N         5.67279535522242   -0.36110857359227   -2.39904115392355
C         4.92554832707515   -1.50241536293655   -2.18592544380469
C         3.65756508921027   -1.40606520891892   -1.74513306739811
S         2.57077549423172   -2.75814266833601   -1.58916308149356
N         3.48492008861326   -4.01803754816242   -2.16550029429926
C         4.72255760831171   -3.93203009953964   -2.52317353888468
C         5.61275203136694   -2.74268825617691   -2.65294863779568
O         6.75092866517526   -2.73251784097488   -3.10583329225244
H         4.51702958034518    0.56194280434410    0.60878555118572
H         4.03433240906482   -1.13474270459572    0.79230303738055
H         3.42463665052129    0.08393818510531    1.97587597864550
H        -0.17165385773390   -2.46240468481170    0.88936581298091
H         0.70411316460040    3.39626229295905    0.07626926196629
H         2.05791905773979   -0.16436803192322   -2.11208858974414
H         3.54806648318266    1.99283332896204   -1.61845781334724
H         5.89504307797329    1.59069802131992   -2.50463067201206
H         5.11440701286025   -4.81385061635134   -3.05384013472293
