26
 energy: -46.154473156214 gnorm: 0.224009910409 xtb: 6.4.1 (79825abcba525fcdf90b791dcacef51065a7a4e7)
C         3.67510034090501    0.20484438103216    1.02400238340954
C         2.46540971370406    0.12054723433484    0.06726769111151
C         1.49638434814657   -0.95796270383051    0.52358290229962
C         0.49209078675668   -1.66324643256435    0.96404409282041
C         1.71834946767657    1.40780204942976    0.02456933347700
C         1.10086484778883    2.43215352472082   -0.05376268009377
C         2.96647033436321   -0.17661033884943   -1.41345384136691
N         3.87786088199482    0.93859446285817   -1.72395892051728
C         5.20045413488165    0.76273528048224   -2.00348357869492
N         5.71922748662076   -0.35444458448799   -2.38019822075978
C         4.92160890158960   -1.47947814289402   -2.31325278321361
C         3.70475344105653   -1.47980805629891   -1.73825241475840
S         2.74785812681786   -2.90787601466188   -1.45802935192659
N         3.53979636732554   -4.09200990328717   -2.30998051642393
C         4.64439141533792   -3.86196710348306   -2.93769394617219
C         5.55026875778497   -2.67741540333880   -2.94441800661260
O         6.69034406084115   -2.68287856038539   -3.39258365722428
H         4.39018222993592    0.96252097856525    0.67891395132854
H         4.21157032829399   -0.74566441304634    1.11888584986798
H         3.21742102948106    0.41096540833324    1.99831427885841
H        -0.20065796020307   -2.36927774545040    1.36190158028518
H         0.43889457510506    3.26893015579607    0.00678839450371
H         2.08265096229608   -0.02862575165357   -2.05080982192314
H         3.47326013220238    1.86565593361802   -1.63158908401545
H         5.83434040041108    1.66297512269278   -2.08319486163887
H         5.03841940333224   -4.67322154097636   -3.56965011405489
