26
 energy: -46.151954894439 gnorm: 0.223733126799 xtb: 6.4.1 (79825abcba525fcdf90b791dcacef51065a7a4e7)
C         3.87642316317290   -0.28756606032199    0.76116257145215
C         2.59861978596786    0.08823245803798   -0.02100920805883
C         1.49818521863914   -0.90910411130648    0.30268967967064
C         0.66247192977674   -1.70331361785743    0.91166531866993
C         2.08264819959930    1.46512278916714    0.21328433926633
C         1.43953463251884    2.47643856419032    0.23237499119141
C         2.82086423883876   -0.02302913277546   -1.59267358301126
N         3.72108468326805    1.02447617004197   -2.10557092025865
C         5.05906307201708    0.81483209259638   -2.26105915240253
N         5.66285794099302   -0.32292662156087   -2.26927062254911
C         4.82595003243755   -1.42071970903051   -2.24075581427493
C         3.49961476780620   -1.32449560264397   -2.03353990544380
S         2.44146997046410   -2.70439437380216   -1.93474377678611
N         3.43104623928872   -4.01527042822251   -2.17454120080990
C         4.71224180227436   -3.92280231654873   -2.30516138992564
C         5.57317327538791   -2.70681112317426   -2.36828121514153
O         6.79001424918205   -2.78757927273767   -2.48416280060742
H         3.72738608555015   -0.69997093040691    1.76725010714460
H         4.44716710541645    0.62412701084380    0.96933793918931
H         4.61750819579334   -0.96669625358041    0.32433875657029
H        -0.09863202909934   -2.43926440020599    1.03723935868863
H         0.81718021694758    3.34234648198051    0.30269331028367
H         1.85689370177545    0.09401428128172   -2.10873599114344
H         3.24884388330007    1.92358190832776   -2.12213663828449
H         5.65516104416897    1.71395768575992   -2.49523394965073
H         5.25930613043879   -4.87535379572029   -2.38343469822854
