26
 energy: -46.150839147695 gnorm: 0.227739272683 xtb: 6.4.1 (79825abcba525fcdf90b791dcacef51065a7a4e7)
C         4.02780009395853   -0.09778737349960    0.75199564936345
C         2.68236451862481    0.05445149100981    0.00874258586122
C         1.70166338329616   -0.96625532069148    0.56263814715613
C         0.78919763477667   -1.82321563016539    0.92741483072959
C         2.17297878061852    1.42847703314240    0.27242248148366
C         1.72710099941033    2.47679850770234    0.64516124498904
C         2.66064075701743   -0.10557182514089   -1.57423601179979
N         3.43066308059345    0.98227182170796   -2.20224054183298
C         4.78598366665460    0.86024849261457   -2.28304776920091
N         5.42445468019204   -0.23713765008954   -2.06572548879516
C         4.71845627615468   -1.41883526899675   -1.95832628027801
C         3.37264122126421   -1.40946751621006   -1.95078841572326
S         2.46326808742930   -2.86567577703641   -2.24413069233926
N         3.55471571835024   -3.99688923850247   -2.77728938901840
C         4.83311825496459   -3.83077800418537   -2.70540014035918
C         5.56570965120905   -2.60980790401201   -2.26227087370700
O         6.76840332538252   -2.64230244917326   -2.03178005793251
H         4.78498940282169    0.62790384834811    0.42867142237153
H         4.49414437734039   -1.08795002598358    0.70330466677239
H         3.74899383865156    0.08933498989847    1.79530394043500
H         0.06168904590751   -2.54734903306684    1.21557048571908
H         1.40882200014006    3.44873068730172    0.95518143050866
H         1.58148997195904   -0.18921902074075   -1.76838926981107
H         2.93565226881491    1.77241694720954   -2.60512004503661
H         5.28319029202536    1.80409904553040   -2.56682437207424
H         5.39462936322117   -4.74087998760727   -2.96842116734260
