26
 energy: -46.150399402753 gnorm: 0.223536256068 xtb: 6.4.1 (79825abcba525fcdf90b791dcacef51065a7a4e7)
C         3.86400770128224   -0.05295262153526    0.93829601306266
C         2.63501824313542    0.09703583208302    0.01477716182685
C         1.66577145216349   -1.04216142879061    0.28534639047993
C         0.66240059069760   -1.83994005749879    0.52374300767095
C         1.81038205587122    1.31532429888456    0.24433218278616
C         0.97892639627934    2.05256043033622    0.69364664912492
C         2.96677872334141    0.00251352859753   -1.53857442678884
N         3.83153324120832    1.11071372783275   -1.97995840739417
C         5.14174497492062    0.90207599732936   -2.29321373364640
N         5.71732057090337   -0.24529734263206   -2.39988006206116
C         4.94721359453517   -1.37374850880271   -2.20010319277322
C         3.63942626250327   -1.33025642543963   -1.88520087942158
S         2.49104730239114   -2.63816613829496   -1.94961860521180
N         3.43976776045820   -3.98115139312671   -2.17651092048893
C         4.71440106563890   -3.93163247246860   -2.37634051478979
C         5.55287479402820   -2.70471508072481   -2.50066751583023
O         6.73212984728516   -2.76203939253547   -2.82735610175508
H         3.96743284281758   -1.13206172610720    1.10955237902708
H         3.69182012749187    0.47653463509550    1.88183433851372
H         4.82780631203582    0.34487562317430    0.60056117931134
H        -0.06257264723962   -2.62147401392997    0.54077559144650
H         0.23880045399366    2.80675138574109    0.85325806277424
H         2.00448572092784    0.07838447971178   -2.06535193318735
H         3.29805977614588    1.97019648261477   -2.07145910164020
H         5.79126887167116    1.74172337296051   -2.59604776090739
H         5.20953501710356   -4.91526768293942   -2.36830635747944
