26
 energy: -46.150803051431 gnorm: 0.222256424767 xtb: 6.4.1 (79825abcba525fcdf90b791dcacef51065a7a4e7)
C         3.56152246970878   -0.23441685738942    1.10004162719891
C         2.48536787083584    0.00992024703478    0.01930607011883
C         1.32291746556584   -0.94155607682337    0.25129592981393
C         0.23054294618750   -1.49784704616323    0.69547498457358
C         1.90400918551827    1.37106951139647    0.18129956324926
C         1.33487879746701    2.39821822543863    0.42166435374615
C         2.91003348704416   -0.09595686566091   -1.51051411036800
N         3.79171195094502    1.01304383596605   -1.91485110525768
C         5.14156641851511    0.85624905385824   -2.02265512526133
N         5.69674593762968   -0.29473691659401   -2.18432625749705
C         4.92872507607984   -1.44048097801929   -2.24590632712567
C         3.65248093636575   -1.40039186241226   -1.82051649794390
S         2.69882912683647   -2.85751897671820   -1.79084317280322
N         3.79433381981819   -4.08645815906376   -2.00235672326870
C         4.96491809552554   -3.90750320462949   -2.51692609305376
C         5.57150283158994   -2.60652027233835   -2.92105486525024
O         6.60581077853365   -2.47663474634356   -3.56447604347189
H         4.11996281450057   -1.17722597557977    1.03874478020475
H         3.14399468233476   -0.25997917479123    2.11260619300845
H         4.37185117947208    0.50350454701042    1.10894528569980
H        -0.60367309103664   -2.11279070349986    0.94567396039605
H         0.77965117083895    3.27487077400619    0.67714194468907
H         1.97446449172772   -0.01529112315569   -2.08275746422700
H         3.38496614314697    1.87442131094860   -2.26736155058324
H         5.78724295694654    1.75060002618302   -2.06549904924063
H         5.53069713275386   -4.83892741272535   -2.67536673038165
