26
 energy: -46.148376825465 gnorm: 0.218740532000 xtb: 6.4.1 (79825abcba525fcdf90b791dcacef51065a7a4e7)
C         3.67250728934597   -0.12895163606163    0.99884555484683
C         2.46730373461749    0.02264028299979    0.04474756251971
C         1.43028850534826   -1.08136038803474    0.17202430023905
C         0.24385247683378   -1.61940678794141    0.11805770817177
C         1.93262815735538    1.37499672322767    0.36443679385666
C         1.59249482784772    2.51251536184292    0.52899610922309
C         2.84774463055803   -0.08518157199257   -1.49653106524526
N         3.68842112828315    1.06797764823681   -1.86288433588554
C         5.01553244407092    0.79301654966929   -2.00946316635792
N         5.62261613080617   -0.31072807032313   -2.27840140677617
C         4.79819216853096   -1.41763740914087   -2.31653874979683
C         3.52844834354544   -1.40643145382958   -1.87045827138495
S         2.66244221040823   -2.90934526624664   -1.71286656024743
N         3.78648247865223   -4.11134431866654   -1.92941165902939
C         5.00424105965341   -3.88910772819751   -2.29649338708986
C         5.59061851536858   -2.60059096070713   -2.76522328738898
O         6.56489841979521   -2.48342846489083   -3.49850741467013
H         4.19591169849359   -1.07443377089581    0.80749948484758
H         3.29112702515313   -0.07200628999479    2.02430945538608
H         4.37264763038968    0.68325142261798    0.77219694419080
H        -0.41012583365629   -2.45223859797207   -0.00593897308314
H         1.26027896045148    3.51885383356131    0.66677020246016
H         1.93788032636747    0.01963871461248   -2.10515116312177
H         3.43915565380280    1.93123580699115   -1.38925050975471
H         5.54740544205155    1.75205261201791   -2.13578975945849
H         5.61249757481568   -4.80482310251265   -2.36168369046167
