26
 energy: -46.153036041378 gnorm: 0.228394510648 xtb: 6.4.1 (79825abcba525fcdf90b791dcacef51065a7a4e7)
C         3.84485500699499   -0.10823522896919    0.89494240349294
C         2.52160790873142    0.07801659387945    0.12026437491985
C         1.47609767618611   -0.99192391321673    0.38962115041363
C         0.53721299592244   -1.87447171570248    0.58872333320666
C         1.86328128472661    1.39846879286458    0.32016221504701
C         1.31560301309825    2.46450520175212    0.33843728809320
C         2.83942553833864   -0.05447612963148   -1.43322790370853
N         3.73720341441161    0.99236875694253   -1.95172433779472
C         5.08790892398753    0.81227403898355   -1.91333268115866
N         5.67058229185195   -0.31805430645995   -2.11822324016388
C         4.88029589527158   -1.45013872066982   -2.13271111033919
C         3.57666734392107   -1.34244088381201   -1.81598327161565
S         2.60956539605445   -2.78662784095740   -1.70378003416974
N         3.54079731060968   -3.97533249331914   -2.39294503447314
C         4.75025932730469   -3.87448177537568   -2.83351832120776
C         5.54986877191983   -2.61686994975573   -2.78004937433999
O         6.71199440693897   -2.62710506487508   -3.16736480417439
H         4.61542716156012    0.52148287103236    0.43215127799973
H         4.24723990648816   -1.12491997389867    0.82632458795406
H         3.68489253945685    0.10378515818578    1.95828583661150
H        -0.14315740220495   -2.68539874865397    0.71586531757675
H         0.77311031020304    3.36027462100513    0.55142792820438
H         1.86805400557691   -0.06530295067136   -1.94857137293084
H         3.31835958142299    1.91567134830371   -2.01303577711372
H         5.65923036888180    1.75178797381996   -1.81585020771370
H         5.22264439130333   -4.76783306582569   -3.27116684753081
