26
 energy: -46.149894130001 gnorm: 0.232744069083 xtb: 6.4.1 (79825abcba525fcdf90b791dcacef51065a7a4e7)
C         3.73875870868422   -0.18707424915961    0.83208335807184
C         2.48502217186817    0.14788148585057   -0.00562066983941
C         1.41752935356224   -0.77669419315024    0.55655039440694
C         0.54060029505852   -1.53871912170011    1.14845425704365
C         2.01900159504433    1.56196352713319   -0.01761656189025
C         1.44551273103070    2.61440422979208   -0.00353883068248
C         2.77436123573237   -0.22486307816414   -1.52524069794914
N         3.58768102812164    0.90605034260680   -2.00510905737483
C         4.94299314335886    0.78256238849156   -1.92641215391142
N         5.62965117930324   -0.30682531739605   -1.95583558642637
C         4.85929245555153   -1.44008900368271   -2.12506462890715
C         3.56665232531360   -1.51596605480984   -1.75806745720463
S         2.61694860705612   -2.97516814148015   -1.80648053583967
N         3.64046207778999   -4.11097127794625   -2.45264726347144
C         4.85563616243784   -3.83507423290716   -2.79074018779271
C         5.64615541858320   -2.57435547764141   -2.69332749446231
O         6.84044085247364   -2.53522478028511   -2.96315167288361
H         4.68355306291896    0.08882672382377    0.34654835573799
H         3.84469677133615   -1.25206542046644    1.06626452047379
H         3.59550532498454    0.28672706689613    1.80995383921708
H        -0.20192634815227   -2.24396620829842    1.44502186882204
H         0.96853877464435    3.57042620230043    0.02062788767068
H         1.83681909053093   -0.19918207408898   -2.09936087470751
H         3.21143949693825    1.84801975807222   -2.05814543391734
H         5.46806412617283    1.75359026802246   -1.92474372613990
H         5.43864560264535   -4.68384817469520   -3.18117994428017
