26
 energy: -46.155044568701 gnorm: 0.216020569243 xtb: 6.4.1 (79825abcba525fcdf90b791dcacef51065a7a4e7)
C         3.59218758731483   -0.47580412418995    0.98147497111169
C         2.44493442918226   -0.01041668753938    0.05788230728657
C         1.22400903768193   -0.86486266479742    0.35734964798782
C         0.43050908449950   -1.75829174789720    0.87905748084099
C         2.05066068224297    1.39791741930225    0.33732884806023
C         1.87178262968111    2.58308820632512    0.32773981896229
C         2.78207206924560   -0.14455783721677   -1.49139009715268
N         3.57982853138047    1.00575989076222   -1.95082629614978
C         4.93302274899579    0.89882568336037   -2.07630090251643
N         5.61906663111069   -0.19100177844520   -2.10369532202738
C         4.87089630745551   -1.34632767873162   -2.21251089541306
C         3.56772677471907   -1.40154743203454   -1.88075392455724
S         2.60185790527375   -2.83332075785455   -2.10586315589886
N         3.73208762644781   -4.04708393708150   -2.17309224527610
C         5.00003566497899   -3.83950136474566   -2.30072965381493
C         5.63334947627192   -2.54286242623207   -2.67684503253955
O         6.73508633556693   -2.43618863265514   -3.20167889920964
H         3.92123797678568   -1.50642489688165    0.79695228634980
H         3.21782876671332   -0.48806164180583    2.01102589932552
H         4.49630820851751    0.13340050772992    0.86888939684942
H        -0.47059394533203   -2.32802821443007    0.86982074887161
H         1.63426920104048    3.60630080791187    0.52443640212863
H         1.85198403362229   -0.18839581981035   -2.07643132660130
H         3.09553233161499    1.88407844154446   -2.11110927315657
H         5.46031019803608    1.86148768781427   -2.19397532087773
H         5.59524210659986   -4.76113311604476   -2.39604291173794
