26
 energy: -46.151174087109 gnorm: 0.220772861493 xtb: 6.4.1 (79825abcba525fcdf90b791dcacef51065a7a4e7)
C         3.87237710225869    0.02545358560832    0.93039034714027
C         2.62544244688184    0.08419887110529    0.02071916279509
C         1.64959624642371   -1.03949365927104    0.32967990502506
C         0.73041840552763   -1.84030568802018    0.79211797235805
C         1.76972367152845    1.26069035976301    0.33783160790731
C         0.93399836729433    2.11924979896132    0.30380179250332
C         3.00579190219724    0.06317064017450   -1.52420567522872
N         4.01584062988862    1.08516392890852   -1.84987293194514
C         5.23721506817734    0.83390479180283   -2.40071475970214
N         5.64626166337684   -0.36941192695033   -2.61009554101463
C         4.87656164162621   -1.45634459581036   -2.24606690777548
C         3.59267018058061   -1.30976333783262   -1.86990285725362
S         2.47697561972872   -2.64215835890019   -1.75370967640617
N         3.33603427837270   -3.92454386310754   -2.36417316136124
C         4.58732822302726   -3.89317926326647   -2.68095981466441
C         5.54634693025598   -2.77495269963076   -2.44928295335373
O         6.76684694839107   -2.84864507707544   -2.52413701550668
H         4.07711856681492    1.06926408452771    1.20065418012149
H         4.76832912342883   -0.29770607294446    0.38899612768201
H         3.68640666085805   -0.64199083116097    1.77960930818708
H        -0.00022485831953   -2.61180098773764    0.87945098037391
H         0.24208838016994    2.89350566533777    0.55649654447884
H         2.05905279720148    0.20508102216226   -2.06532052060906
H         3.60479345323481    2.01269665469367   -1.89886461050538
H         5.84343157978035    1.70786438189466   -2.69616971289481
H         5.08109403125001   -4.81850244649501   -3.01671678568196
