26
 energy: -46.151187890058 gnorm: 0.226426549211 xtb: 6.4.1 (79825abcba525fcdf90b791dcacef51065a7a4e7)
C         3.96951921801287   -0.08194357695039    0.81489937378380
C         2.63028396702229    0.00808431161233    0.05060713969534
C         1.59971897824595   -1.05441746086230    0.39621272800898
C         0.63424249869765   -1.83014749996300    0.80380914488849
C         1.97722543229613    1.32161172230675    0.30576871223668
C         1.51312745395235    2.40842857816176    0.50617156070232
C         2.80080760228047   -0.07825147002306   -1.52906639577144
N         3.58523211810551    1.04259715935179   -2.07597078203026
C         4.89338473120051    0.91914938207785   -2.43902832450517
N         5.49545281538391   -0.21797602543134   -2.37910853721034
C         4.85216949724708   -1.41872328953465   -2.15378616213518
C         3.54252860999118   -1.38146631344853   -1.84586505454896
S         2.48274513858513   -2.75332760419970   -2.01440971074250
N         3.49832351682341   -3.98867307827759   -2.45902431183964
C         4.78530671752696   -3.88508461782309   -2.46323449079185
C         5.64327993639963   -2.67416501780250   -2.31702448492264
O         6.86473685753880   -2.75549250504819   -2.36266233193609
H         4.49548395770480    0.83963865776408    0.53463299874605
H         4.41321333984675   -1.03156625542514    0.49611702501148
H         3.84749409286204   -0.11456253856980    1.90360767636804
H        -0.22152755845430   -2.46530812458559    0.83381275555554
H         1.04126570799773    3.36449483407398    0.57931536093118
H         1.74497839360584   -0.11336510940655   -1.83443581560495
H         3.09196349087863    1.92505091074636   -1.97779562912330
H         5.43269091156068    1.78721030545079   -2.85642086178131
H         5.30289865563026   -4.85310991424740   -2.55147290887838
