26
 energy: -46.146688128267 gnorm: 0.232161185594 xtb: 6.4.1 (79825abcba525fcdf90b791dcacef51065a7a4e7)
C         3.70366624643121   -0.39899314161008    0.83983020279539
C         2.52815400903861   -0.06409550284645   -0.10452844162374
C         1.30530342604939   -0.82991104695833    0.37357242010211
C         0.19492156045828   -1.41588796277825    0.72531085444200
C         2.20824909504640    1.37937722426346    0.07152402796987
C         2.04497898721506    2.55936228644245    0.20455500424061
C         2.71910635267003   -0.18950586868219   -1.67923796737484
N         3.49204961047309    0.97792769301039   -2.13791594187500
C         4.83741744049413    0.89387187164545   -2.34097607476698
N         5.53301822378936   -0.18412198394559   -2.45586452693097
C         4.87200730474223   -1.37956871686101   -2.25499325321350
C         3.55066822390660   -1.43493228635160   -2.00527210757215
S         2.65839012974232   -2.86601444966305   -1.57007634616694
N         3.60530988021270   -4.06427041321334   -2.22021914682678
C         4.84303709293414   -3.85079619604887   -2.51944174332568
C         5.68297682613188   -2.62757770761817   -2.37091743223339
O         6.90243574076051   -2.70247815573477   -2.46015792476929
H         3.19395940463848   -0.58290299845059    1.79422952452068
H         4.42243057939055    0.42525655141169    0.90510014533680
H         4.18288607272850   -1.25178039571925    0.34552042378107
H        -0.73825987537998   -1.81634085445171    1.05009002792255
H         1.69776456149343    3.56172754153800    0.33406271866973
H         1.69327521691101   -0.12531567843847   -2.07014570973612
H         3.14375230329617    1.88651414912171   -1.84664877514748
H         5.40719732001218    1.83138099879817   -2.46355251779575
H         5.46104874810506   -4.69200985305025   -2.87041409207765
