26
 energy: -46.154357759584 gnorm: 0.222724643453 xtb: 6.4.1 (79825abcba525fcdf90b791dcacef51065a7a4e7)
C         3.98492848482016    0.02329399111550    0.60512479496156
C         2.59614843977516    0.06581382930756   -0.06962014874809
C         1.75054673111490   -1.07995656350959    0.46196744296975
C         0.96019277674233   -2.09007124744840    0.69658564977755
C         1.97555429165100    1.37430321057302    0.27630693170835
C         1.55093419350224    2.37955090417552    0.77218387359842
C         2.71291426099481   -0.08627692093899   -1.64921970885625
N         3.52496453237817    0.99136486510761   -2.24081959158949
C         4.88208136692976    0.87199637218147   -2.28876186195289
N         5.56522687461588   -0.21432512947427   -2.17763862136511
C         4.79258196108443   -1.35674417009276   -2.11224615205712
C         3.44754687942030   -1.36525273490339   -2.06565235758719
S         2.37507032939981   -2.72314957838531   -2.26430258450447
N         3.42455421677767   -4.00819634511978   -2.21532904677975
C         4.70433694138267   -3.85371881007325   -2.14206973001785
C         5.55609866563567   -2.63341550435715   -2.23790035319566
O         6.77366084720644   -2.74259939680506   -2.31711653846536
H         4.69388959340970    0.71213647650741    0.12828925116352
H         4.37548848082781   -0.99313663028357    0.48428784118954
H         3.97998081617869    0.18451604513668    1.68920175845678
H         0.51744500277849   -2.90602016024152    1.22086935245456
H         1.13822997863368    3.32568899580414    1.04888613499577
H         1.71017674850725   -0.01379992171709   -2.09477927759213
H         3.19119262729383    1.93265563910481   -2.42587341218478
H         5.45623875977549    1.81254248553089   -2.35444106499993
H         5.32127450500766   -4.76393818264010   -2.08166152347477
