26
 energy: -46.150649578188 gnorm: 0.225220649528 xtb: 6.4.1 (79825abcba525fcdf90b791dcacef51065a7a4e7)
C         3.72574566695550   -0.07676470654800    0.92775139372647
C         2.53637499985257    0.03549725076997   -0.05132642735792
C         1.52040455248701   -1.03192562411914    0.32127243236266
C         0.44345951922382   -1.66797703160432    0.68959943511645
C         1.82925113798455    1.33703981457542    0.10003391728276
C         1.52524159981051    2.49637949301292    0.11516128562563
C         2.88606787897909   -0.04033583966972   -1.60176665284649
N         3.75673225455391    1.10018573647083   -1.93625427082073
C         5.08511194963553    0.79840263253065   -1.98771054014633
N         5.67548010994107   -0.33350439445549   -2.15912372204247
C         4.86484221373186   -1.44460114865999   -2.28039946871601
C         3.57961908051386   -1.37700210980284   -1.88670591086527
S         2.58454814727008   -2.79314552170798   -1.69196664515556
N         3.59663794546304   -4.06965558817747   -2.01033171471544
C         4.78123189002455   -3.95968357055547   -2.51204617457428
C         5.53019686209047   -2.69346297078087   -2.75609239650412
O         6.66025623161200   -2.75907594527845   -3.22440292152637
H         4.59558239917088    0.44600579328867    0.50990330235295
H         3.91788161941941   -1.13814374992484    1.11965812644246
H         3.47211901020132    0.48085309387028    1.83658350577599
H        -0.17073995783470   -2.43910038970086    1.09555436154325
H         1.05064808952633    3.45327014351227    0.08070117701932
H         1.94598946700770    0.12316127557679   -2.14837441057612
H         3.49966933306253    2.02055391538498   -1.59198984453728
H         5.60249385626942    1.75697820269470   -1.80869573632596
H         5.26501118959746   -4.91291625158777   -2.77674497360232
