26
 energy: -46.156098831821 gnorm: 0.225183464655 xtb: 6.4.1 (79825abcba525fcdf90b791dcacef51065a7a4e7)
C         3.81715804209343   -0.16062550493944    0.70821273443439
C         2.48475054066847    0.09519176138907   -0.03005987957028
C         1.43673312228630   -0.94034501999772    0.34375887611161
C         0.52203258662917   -1.75490097741118    0.79081397676104
C         1.97272943569738    1.46072244917964    0.27011908330959
C         1.59464688228142    2.57584035829513    0.49436161318869
C         2.77447106810684   -0.09659220558551   -1.58285785072433
N         3.60785097074850    1.02786206695881   -2.04308431362473
C         4.94978480479482    0.89242174466174   -2.24103101034092
N         5.51904487558331   -0.26260918613924   -2.27228917947082
C         4.83022828029403   -1.45741376638109   -2.20632474074460
C         3.52146267091821   -1.39711509751035   -1.89833223637722
S         2.57705392705531   -2.86055020215303   -1.89710238846661
N         3.60069458760290   -4.12890318311317   -2.21110961123266
C         4.86312164297575   -3.96624317701618   -2.42765915539922
C         5.62515407152774   -2.68643869646838   -2.49996928423057
O         6.81932134907658   -2.57488427267673   -2.74931665585024
H         4.46066195344347    0.72593122326868    0.64171580990531
H         4.26522031853313   -1.05426667254187    0.25997669514777
H         3.61723094705550   -0.31666192726572    1.77447803218770
H        -0.25523014041643   -2.45387219538547    1.00051257770439
H         1.21926437973019    3.56276687597880    0.65907414013056
H         1.81484738977136   -0.04512717098042   -2.11739737445120
H         3.19075763590312    1.94126515629532   -1.89009781906491
H         5.62648836005006    1.76376144574260   -2.20312485264368
H         5.46376212636807   -4.88439106127428   -2.52250576035730
