26
 energy: -46.152842697381 gnorm: 0.220750828947 xtb: 6.4.1 (79825abcba525fcdf90b791dcacef51065a7a4e7)
C         3.69525410233471   -0.18547405659730    0.90444913572773
C         2.48709577431504    0.03801670040246   -0.03160857160087
C         1.48445924413415   -1.05312780350451    0.30683062245210
C         0.57627271317385   -1.71991660336222    0.96305214424755
C         1.80249334161626    1.34373446309052    0.17664068679169
C         1.22926468515818    2.39405603327825    0.10626589189721
C         2.97465748229220    0.03163831371953   -1.54625160827751
N         3.92570286014151    1.14649865575858   -1.69898332981644
C         5.05380635853845    0.84417199053667   -2.40204412257752
N         5.57301295013349   -0.30202600743837   -2.67733528167145
C         4.85443392248994   -1.42511397961968   -2.31859417123610
C         3.57292612620901   -1.32933482574556   -1.91868561054924
S         2.61604557252972   -2.76764658422402   -1.69689611562107
N         3.53570998615196   -4.05598739770882   -2.19645125542957
C         4.74929643233586   -3.92460838664715   -2.61719054207070
C         5.59852764951960   -2.70186748476861   -2.53039934651548
O         6.82120683331123   -2.71010332620285   -2.60551108743888
H         4.31808049357449    0.70912283553196    0.77683389042858
H         4.27048488621122   -1.10160363401824    0.73099588979368
H         3.35436732711434   -0.20434583018310    1.94592883260408
H        -0.03838859328988   -2.47567321933192    1.39629000213170
H         0.58716792941172    3.24729883250604    0.06437691650264
H         2.10899335017485    0.20476891405971   -2.20192696047927
H         3.51443921574814    2.07277293968434   -1.63149194816828
H         5.66600830627800    1.71030189257442   -2.70802651831247
H         5.16950386927698   -4.90218427033432   -2.90097127917234
