26
 energy: -46.147709686179 gnorm: 0.220903006367 xtb: 6.4.1 (79825abcba525fcdf90b791dcacef51065a7a4e7)
C         3.85076728859067   -0.14829702940875    0.82338622033360
C         2.57212420986454    0.02666353774386   -0.02529473794522
C         1.37883645713055   -0.85734238719268    0.29876590487628
C         0.21523150648131   -1.39649149278884    0.53409233230651
C         1.99992225547728    1.36556794289456    0.28593998471874
C         1.53793380870312    2.47159002401487    0.28691224981062
C         2.88321683251246   -0.08973888165289   -1.58143499309255
N         3.65794761361512    1.05422145736711   -2.09317207139240
C         5.00507876009096    0.88218685201725   -2.21130405909450
N         5.58466066927601   -0.23245354452237   -2.49554365948516
C         4.89694797459090   -1.41876905613897   -2.33403718176387
C         3.62778542472361   -1.39404741603323   -1.88684818294627
S         2.70052394763408   -2.82493422571145   -1.53145995689759
N         3.50293843800008   -4.13770525843167   -2.15429478781892
C         4.71435014485623   -3.94721575559243   -2.55836096652185
C         5.57678670780674   -2.73070787245362   -2.54680993745900
O         6.78816163788924   -2.87840699219788   -2.65362628531198
H         3.66312350139029   -0.31543745473068    1.89172878956342
H         4.57280585119092    0.67529257952194    0.79827934040967
H         4.36353666157660   -1.03534457450777    0.43421515322993
H        -0.59062420538746   -2.09265732490790    0.48289337451424
H         0.94610337529567    3.36018515146810    0.33383396208749
H         1.88525847337886   -0.10974486295856   -2.04288666009261
H         3.36926427887253    1.94172290253329   -1.69232291876204
H         5.51547045827852    1.85745035183595   -2.29472394143174
H         5.15029478321547   -4.87781898069903   -2.95420224275966
