26
 energy: -46.149181231203 gnorm: 0.221471982527 xtb: 6.4.1 (79825abcba525fcdf90b791dcacef51065a7a4e7)
C         3.63792221624086   -0.15154682745232    1.00856206376663
C         2.47124239019333   -0.00054210950538    0.00763526260186
C         1.47216701360932   -1.12899691874351    0.20475346450506
C         0.65424694094449   -1.92043673659155    0.84088752885343
C         1.74485552430502    1.28234331620768    0.21623595179261
C         1.30736536748278    2.35314680939428    0.53040367750031
C         2.90873656731028   -0.01388298120656   -1.52217567943916
N         3.90712786895684    1.04628459086277   -1.74575433601084
C         5.12356909694762    0.90826811746870   -2.34536720097558
N         5.61391168322015   -0.22396489827225   -2.71515511876373
C         4.91286668767113   -1.36763764152440   -2.38815945301470
C         3.64988014739076   -1.29208794883786   -1.92933488819400
S         2.62363041223191   -2.67435558350894   -1.66532849825952
N         3.45627226953381   -3.93687793339200   -2.34936422927412
C         4.65300772431904   -3.79362839290870   -2.81237381575096
C         5.61001175849138   -2.66169096070990   -2.64902565272445
O         6.81966555277178   -2.85404628835710   -2.66880219099079
H         4.49831764874980    0.51575297826523    0.87096617796580
H         4.00418904246098   -1.16890154748609    0.83218780685243
H         3.38912211827734    0.05552019710645    2.05568271311763
H         0.11439686865072   -2.80608506332683    1.08758688883879
H         0.75823566891249    3.26630464765717    0.61204648785628
H         1.98467135362231    0.09286041247228   -2.10866361186302
H         3.51387041597698    1.94164876162243   -1.47125751759562
H         5.58003461961231    1.88778016657975   -2.57073984650806
H         5.05084533192852   -4.73915568334014   -3.21295313458735
