26
 energy: -46.153331333203 gnorm: 0.224039135766 xtb: 6.4.1 (79825abcba525fcdf90b791dcacef51065a7a4e7)
C         3.72446878642685   -0.23913777871717    1.07085692983559
C         2.56217267264157    0.01430444719005    0.08564960000980
C         1.39523882785709   -0.90921841559442    0.39514656684584
C         0.28274579954893   -1.52353745285296    0.68670814969883
C         1.87564602005212    1.32233904300232    0.27185861266726
C         1.15858659790087    2.28282761480705    0.27442946394189
C         2.98004508033002   -0.12705916295681   -1.44317335468202
N         3.81064307662625    1.04564589750911   -1.76813134791722
C         5.10515413893785    0.89275140335356   -2.16710225036246
N         5.72691103733575   -0.23068078474116   -2.26932278293145
C         5.00837426788365   -1.40821195770957   -2.21013790773684
C         3.71319406773387   -1.41177442517098   -1.84427138269838
S         2.65816794303857   -2.79433174167264   -1.74936693327579
N         3.60083160978767   -4.06559727034966   -2.24979594477873
C         4.81863592316804   -3.89161485540496   -2.64191433478590
C         5.60440190299037   -2.63604749437556   -2.81495803626273
O         6.64580052557527   -2.56265179226752   -3.45586050634042
H         4.08582832954845   -1.27538934231301    1.06066194567585
H         3.35520979630929    0.00515472516866    2.07297411961999
H         4.55696763665641    0.43790617244178    0.84770440338712
H        -0.50519189230570   -2.23862454396710    0.75361313366577
H         0.55008238143560    3.12874285512960    0.51152910141455
H         2.06127332153448   -0.05139924675731   -2.04266714337356
H         3.26433944162972    1.89349566925754   -1.64821459186019
H         5.74341799105131    1.79072207312291   -2.23685459077784
H         5.38770190918854   -4.82952740781204   -2.73806191888331
