26
 energy: -46.151035304896 gnorm: 0.210774464009 xtb: 6.4.1 (79825abcba525fcdf90b791dcacef51065a7a4e7)
C         3.96361418383171   -0.17943113324381    0.56557483284561
C         2.57708229026655   -0.03691216342521   -0.10001991985943
C         1.68025905012395   -1.11766233060425    0.48144771892163
C         0.55377380651050   -1.71892666898938    0.74516912309194
C         2.00807956604433    1.29251147147284    0.25468538295444
C         1.39687672146937    2.23130842824240    0.68107778558044
C         2.74499672387078   -0.11630766969769   -1.68033690298734
N         3.57294403140196    1.03076475587615   -2.09198724829227
C         4.93184130540683    0.96446160257311   -2.17751790205203
N         5.58899969725352   -0.14333753623951   -2.18489860150673
C         4.90244372879843   -1.34114515712950   -2.20149385517626
C         3.56365569039969   -1.35377588683935   -2.06419924634176
S         2.45803593107908   -2.69938240856152   -2.08655440890280
N         3.47690241787033   -3.97080516088622   -2.40365895960638
C         4.76095267162108   -3.84669623147368   -2.45738023036946
C         5.62547887948769   -2.64502262576607   -2.27738946985943
O         6.84420549959221   -2.74819012863866   -2.20871718212355
H         4.59322228138417   -0.89639760628869    0.02330673855944
H         3.80817146504513   -0.51967221629299    1.59530463251068
H         4.53755932860206    0.75026993932969    0.65207793531946
H         0.08216017045620   -2.55454692220502    1.20991745313658
H         1.01052969640318    3.13916930470757    1.09167591007784
H         1.76609568181894   -0.03144200324020   -2.17410743571678
H         3.09180343790478    1.92514551817148   -2.07574814023704
H         5.42424417812698    1.93632718747143   -2.35532159875088
H         5.30331459699921   -4.79216514565872   -2.61451865400927
