26
 energy: -46.155346123534 gnorm: 0.230797709824 xtb: 6.4.1 (79825abcba525fcdf90b791dcacef51065a7a4e7)
C         3.75850591465041   -0.19241848147896    0.89475897309836
C         2.52858911632082    0.05977086400853   -0.00496537676005
C         1.38843903683437   -0.85008046206417    0.42240541363668
C         0.47552428552115   -1.68854038513820    0.82689073594434
C         2.02909673013955    1.45604341053572    0.12874125989679
C         1.57182295279257    2.56373189317875    0.10332412953794
C         2.86506867577865   -0.10481760578677   -1.55144291903582
N         3.68630146980519    1.03491092663835   -1.99565396655598
C         5.03111042354295    0.84187294714164   -2.10762993773071
N         5.62287111623510   -0.29991896827256   -2.18016315318219
C         4.83858679197207   -1.43617035665603   -2.19460225544817
C         3.54809954632245   -1.45167920240925   -1.81281055874167
S         2.52673807471518   -2.86230938726011   -1.79056353598499
N         3.56163045852845   -4.08415428371494   -2.22788816750883
C         4.81630008948113   -3.91262559590436   -2.47979308599309
C         5.59636048787420   -2.64957242880042   -2.62129989737752
O         6.75798636539858   -2.66720762064761   -3.00984631358050
H         4.50765757147788    0.55383941394036    0.60086628328716
H         4.12298226728334   -1.17349357908398    0.57084766748843
H         3.52346181573698   -0.08730371739887    1.96009697327562
H        -0.25400641220627   -2.42600054906273    1.07307987354644
H         1.36350027774020    3.60484264598044    0.22479952799130
H         1.92437915074573   -0.07610954899093   -2.12024678358967
H         3.30965383116158    1.97577883923252   -1.92797050692048
H         5.50737511858250    1.83601444016841   -2.04887542557444
H         5.37934685647977   -4.84874161980527   -2.61916862992264
