26
 energy: -46.151992339291 gnorm: 0.224921866502 xtb: 6.4.1 (79825abcba525fcdf90b791dcacef51065a7a4e7)
C         3.71360956254722   -0.52161683411154    0.77739160371612
C         2.45482787823035   -0.07373285700264    0.00236431002993
C         1.29369956914305   -1.02252383838015    0.25135054520284
C         0.30224473779181   -1.73446532159367    0.70981908059882
C         2.02778850511563    1.26788941564316    0.48675482022306
C         1.74390159848236    2.41462009374751    0.68957513052199
C         2.77958249958961   -0.04097051343010   -1.55499296840360
N         3.65259831428892    1.09051852823574   -1.91318818186905
C         4.93527935012380    0.94370115415891   -2.35078092990285
N         5.55261014167900   -0.17784896867668   -2.49276183318063
C         4.83599612501841   -1.33646242971670   -2.26813590254112
C         3.52333288997116   -1.31453342084087   -1.97183015030979
S         2.59050733133257   -2.78365126671938   -1.90054944305457
N         3.69149483005953   -4.00193121540034   -2.14299638809967
C         4.95905018938761   -3.87160381089955   -2.35130442634319
C         5.62304607013479   -2.56016406850257   -2.60241590209087
O         6.78300514470485   -2.43308212868012   -2.97524176252294
H         4.55640346520444    0.17663227137630    0.69585276167561
H         3.97596720801206   -1.57153075415825    0.60674837338544
H         3.37418732070885   -0.51903571149712    1.81951720999067
H        -0.53033341244980   -2.29728738118581    1.06579179531790
H         1.71078139483176    3.46402785078843    0.88885537183686
H         1.84373290764104   -0.01110161151188   -2.13166631673827
H         3.43528792763462    2.02327189049000   -1.57492159688381
H         5.47324461577458    1.83432578404481   -2.71953369212141
H         5.60924652157396   -4.76013619168757   -2.32860314657604
