26
 energy: -46.154311640012 gnorm: 0.208061185949 xtb: 6.4.1 (79825abcba525fcdf90b791dcacef51065a7a4e7)
C         3.58276880749595   -0.34724203795077    0.95211493531132
C         2.37801453892815    0.00982206194590    0.05385490745097
C         1.20430655274821   -0.90102021134965    0.37509209827186
C         0.22060980472531   -1.72830761691773    0.15606466301345
C         2.07227028968590    1.43725877472031    0.34692825989727
C         1.79348578594353    2.54169352348302    0.72005314867729
C         2.83432958539183   -0.13979012280637   -1.46314653827858
N         3.59602285623959    1.01580203494466   -1.96827820370965
C         4.94312023950170    0.88841720292011   -2.13385338722496
N         5.59718242074638   -0.21270456851620   -2.27119991425552
C         4.89708267815545   -1.40272487843352   -2.28066670347601
C         3.62313100833679   -1.39661132675758   -1.84664767905429
S         2.66692660211628   -2.85089882551198   -1.78128170690885
N         3.73023528468240   -4.08032614510373   -2.11750059355501
C         4.96938341203089   -3.87202690973473   -2.41448107540943
C         5.66262003232514   -2.59516309639982   -2.75043269459947
O         6.75320337863163   -2.47112661153984   -3.29439676390475
H         4.42749416033409    0.33477885315743    0.79152681591591
H         3.83544909081152   -1.37663643991803    0.67504142421627
H         3.38171898750618   -0.26325496392778    2.02624948724879
H        -0.48322906086013   -2.44612948717964    0.51104950933455
H         1.57408113446745    3.57480411639025    0.88317979236892
H         1.87758849015753   -0.12016545981519   -2.00492150813460
H         3.19607749941717    1.93280853121006   -1.79272274494192
H         5.53688286065423    1.81347229741483   -2.23542346622217
H         5.54917910665269   -4.79449690315019   -2.57462624640302
