26
 energy: -46.148160000357 gnorm: 0.226131204119 xtb: 6.4.1 (79825abcba525fcdf90b791dcacef51065a7a4e7)
C         3.60369141425726   -0.19741415822243    1.08948314235952
C         2.54582035622774    0.15369779226380    0.02017125257024
C         1.44057057364869   -0.85460554630786    0.28880622513847
C         0.55103150852218   -1.72344009082727    0.68108618021405
C         1.89992379374078    1.48721696353654    0.16677064739470
C         1.44340422724183    2.58134491851309    0.34338609163613
C         2.96606033848789   -0.03752942374664   -1.50256679128068
N         3.84587414620527    1.06218766441755   -1.93532291823891
C         5.08353245031237    0.83464591718724   -2.45947945027155
N         5.57551379241376   -0.34549750740043   -2.61551282387820
C         4.88042934750708   -1.46174346736459   -2.19452568088222
C         3.61065353788124   -1.40544087743359   -1.75196250766062
S         2.61333761030596   -2.82641835745564   -1.61147890017590
N         3.52002731637516   -4.07132419966614   -2.23057763867649
C         4.73432840427991   -3.95605990949788   -2.65396997616407
C         5.57913851006042   -2.73133916065033   -2.55309048081544
O         6.77585202154479   -2.76404192100510   -2.81282360845752
H         4.03673996848183    0.71754395377218    1.51353804808769
H         4.41563261548484   -0.85335833513792    0.75667898331407
H         3.17661510350873   -0.72963367447074    1.94714747431170
H        -0.32494197225423   -2.32691255243798    0.60923158806421
H         1.17316287372916    3.61317574035804    0.40942376313530
H         2.07076557177972   -0.01187773619314   -2.14056995547830
H         3.50929118705298    2.00831748974367   -1.78291823735824
H         5.48700733927889    1.73747176168164   -2.95010248758113
H         5.15420893463213   -4.83872643663540   -3.16127713387965
