26
 energy: -46.153266771369 gnorm: 0.224761162779 xtb: 6.4.1 (79825abcba525fcdf90b791dcacef51065a7a4e7)
C         3.66487448152640   -0.56457644789510    0.77116830771460
C         2.49879283538312   -0.02605896676581   -0.08676596759487
C         1.19964545756749   -0.74739754361409    0.23308430341398
C         0.09832649372223   -1.33928488944241    0.60295276928038
C         2.27194993304663    1.39970320163307    0.27750271213751
C         2.00556427471262    2.53590808333000    0.55099176084080
C         2.68011120318401   -0.16635840154145   -1.66135809655471
N         3.41016133942213    0.98805212373407   -2.21370854898635
C         4.77191056560435    0.94403667126336   -2.25859827031654
N         5.41618751975499   -0.16900621302720   -2.33052396534959
C         4.78165138077695   -1.39427204366538   -2.28087376543186
C         3.49721629209664   -1.44406805640438   -1.88198829376659
S         2.72915746897803   -2.98701563778050   -1.63108967688404
N         3.89241212491678   -4.11365225186593   -1.99535410198784
C         5.11258379159603   -3.92458416336518   -2.37285697907684
C         5.67189469449170   -2.55666470756814   -2.57232971745340
O         6.83941472300405   -2.34255995653417   -2.87516653296281
H         4.59522005584313   -0.28854386931787    0.25856213146164
H         3.66400176505916   -1.65599499473094    0.86642943460747
H         3.68498555058122   -0.10826783137834    1.76747041461072
H        -0.92648782290773   -1.63259747791784    0.58307886593369
H         1.84097721919420    3.54528319834396    0.86105495765366
H         1.68372088831888   -0.24925777935850   -2.11917115816738
H         3.03143943037797    1.92207243065355   -2.08780101617449
H         5.25417509720661    1.92673655627452   -2.40114411128871
H         5.71985117312358   -4.83333524909819   -2.50760933764311
