26
 energy: -46.151506066434 gnorm: 0.232266826011 xtb: 6.4.1 (79825abcba525fcdf90b791dcacef51065a7a4e7)
C         3.68504488734892   -0.23373472342034    0.86661265826608
C         2.48400191467437    0.02372584561574   -0.06987468210475
C         1.44340018325169   -1.00345125108892    0.34542362833909
C         0.57677308833045   -1.89458562504689    0.73896367926038
C         1.92546647316664    1.38685908678172    0.14658100588730
C         1.42756421248476    2.44629922195180    0.40426114464331
C         2.84442744461981   -0.03600642775220   -1.61855997802286
N         3.79705853172873    1.06446509550177   -1.84699887566041
C         5.10517894058162    0.89667805190104   -2.19193641232444
N         5.63854578062719   -0.23612950832444   -2.49425645563168
C         4.85598849628136   -1.36491111385968   -2.35342396444414
C         3.56823173177808   -1.34231432822504   -1.96286710844365
S         2.52318884216674   -2.73161850044970   -1.85670219236414
N         3.51201727497041   -4.01883253910695   -2.20377333628382
C         4.77507626103761   -3.87937405939664   -2.43248142950987
C         5.60571655417599   -2.64436619692546   -2.52529300175243
O         6.80216352272128   -2.78471238457766   -2.74771511177702
H         3.60707084533443   -1.00765430804376    1.64086745112171
H         3.82393253929898    0.66637046615139    1.47553856501196
H         4.55576690167867   -0.40884099660160    0.22441263805923
H        -0.00716024159101   -2.73247625593757    1.04495842231030
H         1.23795508390776    3.46025572955587    0.68355810001060
H         1.89196022746361    0.12628165067957   -2.14365763205969
H         3.40828529909534    1.96547408208351   -1.58486321124902
H         5.64706596709962    1.85468300188511   -2.27668560510170
H         5.25453540010519   -4.85566231492219   -2.60493602805507
