26
 energy: -46.152785767235 gnorm: 0.218208070193 xtb: 6.4.1 (79825abcba525fcdf90b791dcacef51065a7a4e7)
C         4.01395659491017    0.15685597316088    0.73855725097521
C         2.64613131428505    0.18118179600955    0.02143735092314
C         1.61942811467239   -0.80373800002809    0.55644293880395
C         0.72897255033475   -1.75581543821021    0.58240853438556
C         1.93133090785212    1.47395826973759    0.20781466702608
C         1.18460808698896    2.37321504103740    0.47326033468493
C         2.84590949369803   -0.08703977581324   -1.53421251551776
N         3.65744317068815    0.98482546511308   -2.13691134489093
C         4.99702131625434    0.77926462278452   -2.28384169739514
N         5.62197905270277   -0.34511283405811   -2.21801070260253
C         4.86709855188397   -1.48857038228443   -2.04760571210922
C         3.53777960556446   -1.41775823533790   -1.84946556690576
S         2.48834316205951   -2.80693698636676   -1.89863108309363
N         3.43213413638868   -4.06183513605825   -2.43682180667383
C         4.71438592044273   -3.98052089731568   -2.56446353143452
C         5.56461299835079   -2.77969041119205   -2.32168432329108
O         6.78677822392873   -2.80995690674712   -2.39946663743382
H         3.90165931586111   -0.60207399471312    1.52336078559545
H         4.31544618612078    1.13796149763193    1.12170978350499
H         4.84094444725031   -0.09298154314704    0.06408545531667
H        -0.02685195049325   -2.48547194904484    0.76407396654319
H         0.54461452045234    3.22750492210404    0.52486695593651
H         1.90323594104004   -0.10864438267983   -2.10003808724311
H         3.25870651511055    1.91860098452904   -2.10953832549102
H         5.61452893098523    1.64440510681342   -2.58185804927015
H         5.17057383863885   -4.94541795867198   -2.83580584171186
