26
 energy: -46.152969412534 gnorm: 0.221912833982 xtb: 6.4.1 (79825abcba525fcdf90b791dcacef51065a7a4e7)
C         3.76753937826094   -0.48875997137440    0.82919244807160
C         2.56664002445906    0.00773340123132   -0.00575292250987
C         1.39591345051118   -0.91495394141715    0.29167739657688
C         0.21394218067058   -1.46074150781866    0.36306800222194
C         2.17864918879180    1.39330890811054    0.37711878409048
C         1.71343730279155    2.45723126260995    0.67438335820645
C         2.80512381915154   -0.10210442593466   -1.57513553019453
N         3.51074752209803    1.06567748071792   -2.13111077707354
C         4.84861172184074    0.98203730190192   -2.37897584937722
N         5.45564124127893   -0.15106498463590   -2.46098148302167
C         4.79976172870326   -1.36367030280265   -2.38490253785928
C         3.57250125673993   -1.40328209077737   -1.83388040951895
S         2.63603650782890   -2.86652953391260   -1.70941196588526
N         3.75043918316902   -4.08114059691410   -1.90431365681651
C         4.96538282517191   -3.87675322983852   -2.29059309896699
C         5.64747822041857   -2.57927554976965   -2.56467198680595
O         6.82249660170756   -2.58459884014998   -2.91102073454661
H         4.57301069812856    0.25659095433702    0.81615741480693
H         4.18371284400079   -1.35631658716656    0.30534604345073
H         3.45134061421109   -0.69430821201846    1.85827366883105
H        -0.64379189871888   -2.02725627741922    0.64595471673562
H         1.38337365943093    3.42086071287674    0.99771364815070
H         1.78962476212823   -0.13978456851651   -1.99537431699490
H         2.91886255756239    1.81408368775269   -2.47930218404524
H         5.46433156133788    1.88815581127998   -2.51475427341310
H         5.58636256374897   -4.78512506402607   -2.33537238305023
