26
 energy: -46.152689793870 gnorm: 0.222981822080 xtb: 6.4.1 (79825abcba525fcdf90b791dcacef51065a7a4e7)
C         3.70392976312893   -0.30736595301254    0.81560944365837
C         2.47773284459182    0.02103039916235   -0.06438809069996
C         1.30195700556310   -0.88707497922706    0.25703568757519
C         0.19918237339015   -1.57936764422138    0.32526874286464
C         1.92084015816555    1.35925358491786    0.27616497583937
C         1.52130522113611    2.48637069702571    0.19432382376745
C         2.87775572482349   -0.04248547416017   -1.60316945334272
N         3.77377085158914    1.07484803857388   -1.94878571503136
C         5.09639987915906    0.82160800576057   -2.16052928934202
N         5.68085330638055   -0.31516093954151   -2.31959253824472
C         4.88878296158070   -1.44545288182268   -2.28161492544196
C         3.60567402887431   -1.36159650336591   -1.88417017687489
S         2.64088793671795   -2.77519183907968   -1.56092454818218
N         3.67746141119227   -4.05717767581565   -1.75376586725582
C         4.87186041902967   -3.94829415057552   -2.23191798406103
C         5.55506103062229   -2.71136590430244   -2.70843360545813
O         6.59280401052179   -2.70928963012442   -3.35938613175067
H         3.75811412278103    0.33323673497284    1.70510042913962
H         4.54720541145231   -0.06812148646795    0.15840463570001
H         3.87122710196118   -1.31998284072931    1.20013321877486
H        -0.65769284675343   -2.06273726201679    0.73610971020891
H         1.27649356139050    3.51193160680407    0.36856011986715
H         1.94629659132581    0.06150781590774   -2.17834598772182
H         3.50283347400715    1.98534293543614   -1.58924586314639
H         5.72349132767085    1.72938456553263   -2.19652225409284
H         5.52932616159950   -4.83131889315923   -2.25960395006798
