26
 energy: -46.148379873790 gnorm: 0.224432776631 xtb: 6.4.1 (79825abcba525fcdf90b791dcacef51065a7a4e7)
C         3.88094458075934    0.04292917441763    0.92205096948821
C         2.57003007847923    0.07381540464755    0.10574962382751
C         1.54627298651960   -0.98375406649904    0.48507224528602
C         0.61226069509234   -1.85531387397554    0.74591951345917
C         1.85500288348142    1.37219370704553    0.24680639455585
C         1.30268139785576    2.40348342089889    0.50776924088358
C         2.86391256121227   -0.09707261626293   -1.44870558411396
N         3.69227781422458    1.04987628639982   -1.85985896786570
C         5.02513724836026    0.82796937807493   -2.04029303361316
N         5.60632232516066   -0.32063893391792   -2.08560764005970
C         4.85222038873850   -1.47524764069409   -2.15333215467388
C         3.52518361736030   -1.38668957097949   -1.94719234288520
S         2.52601615779569   -2.80564186793221   -2.09480829092421
N         3.52978421574366   -4.07045025697740   -2.47934626107238
C         4.79023267717185   -3.93552480564823   -2.72457851302184
C         5.60567187428640   -2.69766104597435   -2.56156340373214
O         6.81334250916683   -2.67852263617909   -2.76606121094580
H         4.14107261903375    0.94444659875533    1.49135026841490
H         4.74327912544112   -0.16014499703179    0.27752796908675
H         3.68401691827216   -0.65540668910653    1.74350481123119
H        -0.26498207695456   -2.40398600221990    1.00297132945018
H         0.89751004716681    3.39237277403201    0.50824745839963
H         1.92077918336059   -0.01932715105835   -2.00880721836622
H         3.28966651391948    1.96729431218952   -2.02696740312216
H         5.61228994707905    1.72692294189130   -2.29667489331249
H         5.34753275777552   -4.83009027927493   -3.04384273503319
