26
 energy: -46.148187655156 gnorm: 0.221128970167 xtb: 6.4.1 (79825abcba525fcdf90b791dcacef51065a7a4e7)
C         3.74593378487034   -0.12278127119678    0.92259096150879
C         2.49294370286829   -0.01892414379374    0.02535729301577
C         1.39701039555072   -1.00433085196614    0.39727295150924
C         0.23147023622043   -1.42981133335847    0.79792151976489
C         1.77198215255738    1.28193895918207    0.09547706821570
C         1.33610943683260    2.33840620860370    0.45687857818062
C         2.85930928248987   -0.13554428592057   -1.51868825614172
N         3.78259309197423    0.99099230893791   -1.74047688791552
C         5.12895732003919    0.82921440738975   -1.87992104618648
N         5.70385186504119   -0.29658241936925   -2.12732420843839
C         4.90262456073937   -1.41611411188692   -2.23249638690709
C         3.60542825236726   -1.42626577449632   -1.87396966098420
S         2.63547480490853   -2.87188532259526   -1.92806333214686
N         3.69861137196134   -4.11480321725682   -2.21100462015820
C         4.88354329977359   -3.87028565017882   -2.66180561836400
C         5.59769085268872   -2.57680677982856   -2.86361586492768
O         6.69240581492032   -2.48872489616550   -3.40628954204678
H         4.12388836170975   -1.15300536023873    0.90554317132396
H         3.38519906653602    0.09590756385329    1.93368717287639
H         4.56917320539973    0.52471017128355    0.59967985173741
H        -0.62215405838012   -2.04774158222425    0.95966020998779
H         0.88491519616242    3.22319828284746    0.85138200962427
H         1.96646039571207   -0.04256760980631   -2.15385356378348
H         3.42678337942735    1.87221844265419   -1.38198438321661
H         5.77618808579836    1.72096089434852   -1.94683887869344
H         5.64897068434987   -4.66160927246011   -2.68804024342991
