26
 energy: -46.154786602957 gnorm: 0.220808132071 xtb: 6.4.1 (79825abcba525fcdf90b791dcacef51065a7a4e7)
C         3.89779250072223   -0.03614063667938    0.73895876076844
C         2.57842539886462    0.06350157887895   -0.05799831571098
C         1.54611753964427   -0.98340914897550    0.32766456331153
C         0.51480977993169   -1.78060050472774    0.35811154347301
C         1.95166047402141    1.34718988846906    0.36183163626314
C         1.29201552604151    2.31569491645856    0.61399362154727
C         2.84863626110039   -0.03999934593272   -1.62266259175667
N         3.71534748694529    1.07213326306499   -2.05009749178945
C         5.01715351318844    0.84607220079158   -2.38552387972959
N         5.62971482682082   -0.28686306806649   -2.40441496310802
C         4.87443632118928   -1.41632414165116   -2.15895689603424
C         3.55369508627343   -1.37139082534826   -1.90403272323521
S         2.51198390815239   -2.76469386364671   -1.81979395978651
N         3.52019066925302   -4.05896071430680   -2.07189011871882
C         4.78495279832913   -3.90859577667028   -2.28364752557377
C         5.64365983114243   -2.68940052518052   -2.28626810318016
O         6.81177951675601   -2.70157251884985   -2.65505291514328
H         4.54497060427777    0.82757766610483    0.53982775479328
H         4.41057453545335   -0.96494675975660    0.46574883994008
H         3.67680187291348   -0.04582452458094    1.81241544931210
H        -0.25223967366885   -2.45979351470204    0.65307530402018
H         0.72053929616163    3.21280540783399    0.71730815900883
H         1.84699295134942    0.03224593452877   -2.07071399888218
H         3.18348398016050    1.87001013106111   -2.38504620093474
H         5.66577227796347    1.69541604070470   -2.66212141799332
H         5.34229400927335   -4.85046642863356   -2.40616634217616
