26
 energy: -46.153010734468 gnorm: 0.227451739005 xtb: 6.4.1 (79825abcba525fcdf90b791dcacef51065a7a4e7)
C         3.93869657655210    0.03175686504260    0.73314119058488
C         2.60405673025888    0.08586011818701   -0.04249275129697
C         1.77396058977868   -1.11587385711130    0.37845055917740
C         1.05395374780249   -2.06178866752150    0.91405495928800
C         1.85918709487677    1.33920359954177    0.25957753019109
C         1.21913720056534    2.34446505707823    0.38804788745480
C         2.80815390841745    0.00631364402697   -1.61853759085183
N         3.73355715635353    1.03663022633131   -2.12133421990985
C         5.08551289359014    0.86529727231750   -2.15559935637405
N         5.61350799098357   -0.30912545564970   -2.18850822123150
C         4.80011672334933   -1.42461152145862   -2.21002765563036
C         3.48732518029665   -1.33222790612524   -1.92823627432006
S         2.37870506258880   -2.67059070526603   -2.04355392830490
N         3.38401360047528   -3.95943700317179   -2.33232718042586
C         4.67093623018686   -3.93071758730458   -2.43272338653016
C         5.53307525662367   -2.71578183642130   -2.36587193167079
O         6.75645575419357   -2.72923569614762   -2.42762261574217
H         4.62919304465727    0.82663980009428    0.42349993461955
H         4.25165337596497   -0.97562812805310    0.43733143484036
H         3.73056978855722    0.16415513494950    1.80103342977482
H         0.54394167607249   -2.87264934480078    1.38209797929514
H         0.61799012433066    3.20528384622646    0.58724478775596
H         1.83466873534281    0.12711285731141   -2.11552142257396
H         3.40816883919459    1.95263217002209   -2.41585044109334
H         5.73740140211977    1.75570002852934   -2.12693298599892
H         5.15195477309187   -4.89135612982233   -2.67470512295467
