26
 energy: -46.153552904882 gnorm: 0.213759865755 xtb: 6.4.1 (79825abcba525fcdf90b791dcacef51065a7a4e7)
C         3.79070173348662   -0.23112013865585    0.82141348695560
C         2.51919194694875    0.06007094544835   -0.00579224813742
C         1.41878401729351   -0.92630851939232    0.34998213572188
C         0.32377893264929   -1.57581739225863    0.06866579739661
C         1.83451581075194    1.35673519394595    0.25271803143053
C         1.27025617050657    2.38450352810535    0.50176106219035
C         2.87500424800447   -0.06708611078255   -1.55147311938755
N         3.73468706448955    1.07548066295648   -1.90673994335407
C         4.99595399886019    0.85749901846416   -2.37578485011170
N         5.60883136509319   -0.23579460183507   -2.67280498276083
C         4.87671256386782   -1.36308192422706   -2.35720561734520
C         3.63970854690897   -1.36640174918499   -1.82694832436060
S         2.71300374461340   -2.78923873494565   -1.43925664982478
N         3.68490339859130   -4.07506634749512   -1.83576445828519
C         4.84468431419143   -3.93578027793320   -2.38583870713152
C         5.57397747816581   -2.65646966672323   -2.62103553040312
O         6.70497487789412   -2.73509044934594   -3.08505886175971
H         4.67509033490032    0.32599114178213    0.48677071416639
H         4.05117113917046   -1.29477639152317    0.85398578756416
H         3.59811140734171    0.04334085957202    1.86487888024618
H        -0.44881405841787   -2.25200824939853    0.35595943828938
H         0.61504326171574    3.21908372257583    0.62919008753870
H         1.96282183139633   -0.05073881147867   -2.16540697252259
H         3.42235435562425    2.00413989350462   -1.63893920035613
H         5.63418458369278    1.75780258525400   -2.40248074481352
H         5.49535606925178   -4.81008358496751   -2.54389062281861
