26
 energy: -46.155351769746 gnorm: 0.214716321507 xtb: 6.4.1 (79825abcba525fcdf90b791dcacef51065a7a4e7)
C         3.77219472630522   -0.19921144031578    0.92698884208092
C         2.56171477607234    0.04860635243569    0.00009978092409
C         1.44405050216970   -0.90889693409370    0.38014118356579
C         0.34958499813520   -1.61402114313494    0.30955873044561
C         2.09419537331764    1.43126394092648    0.29443077235982
C         1.51663876526802    2.45445767060345    0.53154270316860
C         2.81926164486387   -0.11754784265899   -1.56129800165581
N         3.60421587863323    1.02654894911564   -2.05689588652609
C         4.92915740048468    0.91525825219823   -2.35765782041290
N         5.53229319869717   -0.22276315497469   -2.37393801915095
C         4.85069138479265   -1.41366683810537   -2.22049425162310
C         3.54224320507952   -1.42433516177312   -1.90551440259422
S         2.68560149283647   -2.90556646655196   -1.58044440082529
N         3.64658314279651   -4.14112121104192   -2.13278376186200
C         4.84985723785688   -3.92857100120059   -2.54995030105612
C         5.58466339253884   -2.63588831279032   -2.66332175228054
O         6.78365579449465   -2.62279646510183   -2.91412012309226
H         4.60770982357924    0.48428967974909    0.72889113564661
H         4.14532491115518   -1.22140521304483    0.79985251782458
H         3.41968660309773    0.01658836406045    1.94207916693796
H        -0.51490136858402   -2.09341055677847    0.70895921011347
H         1.04266270819521    3.38503957386046    0.75832503557423
H         1.84715188918866   -0.00819832827902   -2.06359679017460
H         3.22153864303661    1.94438072719206   -1.84996622614107
H         5.52366746228989    1.82159674464039   -2.56671709558541
H         5.42259992117878   -4.75807292293879   -2.99340581599162
