26
 energy: -46.153497936195 gnorm: 0.226610691948 xtb: 6.4.1 (79825abcba525fcdf90b791dcacef51065a7a4e7)
C         3.47757912476212   -0.62671920356407    0.99618484299464
C         2.40752607780727   -0.00497751587748    0.07194329659325
C         1.14272644564622   -0.84787422156666    0.08692508099225
C         0.17942268259297   -1.72655104842999    0.08381875498574
C         2.15246965761062    1.42025939603686    0.41920842886977
C         1.94715741124950    2.51558843600709    0.86059292260206
C         2.86177379065500   -0.08272489121961   -1.45105210414984
N         3.74692874595806    1.05249072014858   -1.76492166059281
C         4.94860728762192    0.94796530249565   -2.40002520638393
N         5.40705635721019   -0.16671489211440   -2.85438527618446
C         4.76845749585007   -1.33005498469553   -2.47332238890657
C         3.58115840287908   -1.37848800027328   -1.84139054850481
S         2.73386210306557   -2.85997347210461   -1.49376794256109
N         3.88548507224246   -4.03257061175071   -1.72601891314578
C         5.02956379441849   -3.80632192432024   -2.28006716755446
C         5.58745994099544   -2.53072092526101   -2.81431025989863
O         6.59309520871455   -2.45560421928384   -3.50980230502475
H         4.44035297566599   -0.24838833858395    0.62953210319837
H         3.53668657210552   -1.71910651991321    0.93731086465623
H         3.37324811653784   -0.26923565358705    2.02699056914358
H        -0.67242048310734   -2.36543495515272    0.03031926464425
H         1.68761024191933    3.50018859911212    1.18503703937717
H         1.99537802871666   -0.01950446305140   -2.12530749074920
H         3.37513365358049    1.93069266995132   -1.41534095827830
H         5.49510276254790    1.89865724137212   -2.52700941742404
H         5.65361582596806   -4.66414134598506   -2.57581252290149
