26
 energy: -46.155306250873 gnorm: 0.213949730637 xtb: 6.4.1 (79825abcba525fcdf90b791dcacef51065a7a4e7)
C         3.60985490902056   -0.37147785837957    0.89932612155779
C         2.41739919522464   -0.05622393125103   -0.03043891799373
C         1.30920824324691   -1.08109954904585    0.14833529316337
C         0.21240296478437   -1.67988782477874    0.52050131984644
C         1.88328250314570    1.30609738838785    0.24478301659419
C         1.68877166658069    2.47342375526263    0.43513479670308
C         2.85685085903159   -0.03084657750767   -1.55953632076550
N         3.78250971004395    1.09292177029809   -1.78543070213610
C         5.06791420987614    0.91273040526621   -2.20205972162822
N         5.61910361763978   -0.22039598707899   -2.46916527765549
C         4.80976875465674   -1.33287425555589   -2.35191858835819
C         3.51139315250638   -1.34553606909558   -1.99776718024119
S         2.64539571471733   -2.82728446078168   -1.70108243316906
N         3.77137844140776   -4.03911363731137   -1.83816989895726
C         4.96357905005916   -3.84294845553752   -2.29341817144417
C         5.57241635389699   -2.55654710695878   -2.73873873936717
O         6.65691585214715   -2.51320053485037   -3.30674922157128
H         4.24645415355884   -1.09809955468547    0.37849575177758
H         3.30177589334889   -0.91420691940858    1.79977177441816
H         4.20660540581548    0.49254278347256    1.21332782378458
H        -0.36182181111182   -2.53877303652506    0.78366235418788
H         1.29952073351248    3.45733162882596    0.58505216109687
H         1.96643237698539    0.16798600999822   -2.17344127624583
H         3.54565960302492    1.95327073795732   -1.30027237314336
H         5.69625172576217    1.81966318362262   -2.23758943772704
H         5.51383789539234   -4.79421718058801   -2.36457593006510
