26
 energy: -46.156650273140 gnorm: 0.212296723750 xtb: 6.4.1 (79825abcba525fcdf90b791dcacef51065a7a4e7)
C         3.80269776381291   -0.50495077752994    0.79575860589881
C         2.52540184221856   -0.06580876035082    0.04644684466140
C         1.30689387727094   -0.90431586772042    0.39653486651702
C         0.09622027618786   -1.34749388236011    0.20185702798016
C         2.12085259338807    1.31864998394111    0.41598848314234
C         1.63000842360736    2.37274735875789    0.70696930044678
C         2.79214787418702   -0.15398289543080   -1.51974998779202
N         3.50824580697170    1.00841930070040   -2.07360264462469
C         4.86418006376885    0.91752320772649   -2.18081080737274
N         5.57903014738770   -0.14619126674583   -2.30977373239332
C         4.87697937950033   -1.33287410718642   -2.23706781306183
C         3.59383096248784   -1.42019966134401   -1.84049862303208
S         2.65021975577236   -2.88067777062298   -1.73973514133143
N         3.73732993017959   -4.04994648120951   -2.19378599269172
C         4.96397749774750   -3.85634240713451   -2.54723650065098
C         5.65855918906093   -2.53987040258964   -2.63822783376040
O         6.84225796347315   -2.45110560168136   -2.94093563035528
H         3.82128360291829   -1.59832968728565    0.88892022395951
H         3.93040286694946   -0.11257100666403    1.81064747077316
H         4.68913146704895   -0.14605914141380    0.26034102992633
H        -0.79857780085172   -1.86697097158011    0.45905654330323
H         1.22098155286813    3.33266377252568    0.93788856002070
H         1.81979935368235   -0.12363209938260   -2.03246428053652
H         3.17036770085696    1.94002985196706   -1.85085370327627
H         5.42924486863785    1.86507037452286   -2.14268480351114
H         5.58439902721310   -4.75612268917360   -2.68226603980963
