26
 energy: -46.150377959421 gnorm: 0.221173963132 xtb: 6.4.1 (79825abcba525fcdf90b791dcacef51065a7a4e7)
C         3.82027447929994    0.20543694031447    0.92988975608305
C         2.55603460925069    0.03609408004513    0.05878744131259
C         1.66852839364510   -1.11921138279979    0.49239952423220
C         0.66238491776859   -1.78688994726328    0.98425052448435
C         1.69120555768085    1.24762455849216    0.09359769057495
C         1.26982007999268    2.36744125129667    0.16545847550722
C         2.91489438951006   -0.10944920424538   -1.48456522545383
N         3.72901449907197    0.97221406454517   -2.06589206642295
C         5.07129590497312    0.87115681159181   -2.28125560646795
N         5.63711951746988   -0.28541097436602   -2.31765825571871
C         4.90417506092364   -1.43921789395381   -2.12298002256512
C         3.60566706905259   -1.44762095325499   -1.76918751847497
S         2.48776587153737   -2.76450166230077   -1.99206375171931
N         3.44949541808883   -4.04795275917622   -2.41983657813036
C         4.73539844893017   -3.93305717900619   -2.43790478393188
C         5.59926876172903   -2.71765104088139   -2.45628149389494
O         6.79036494164322   -2.76710519941736   -2.73823569393607
H         4.39080900158021    1.11881489835745    0.71838792780926
H         4.51178808901298   -0.61757701364306    0.71840252503618
H         3.56642862993928    0.21305760883043    1.99607177886756
H        -0.06224176535464   -2.48824768769277    1.33020589159162
H         0.77168817937485    3.31014067472184    0.23790582410728
H         1.98678365950286   -0.07264984327216   -2.07322051785664
H         3.44613429071672    1.92881045500438   -1.87463554544607
H         5.61802328866152    1.81123897421217   -2.47081338256046
H         5.37656762488281   -4.80344387228539   -2.64787980081090
