26
 energy: -46.148019857954 gnorm: 0.228344930045 xtb: 6.4.1 (79825abcba525fcdf90b791dcacef51065a7a4e7)
C         3.87716388363885   -0.17969342773434    0.81196645737942
C         2.58588047558675   -0.01753031700006   -0.01995240074781
C         1.64572509141317   -1.13614731606522    0.39864202207516
C         0.69215098530615   -1.98707705050449    0.65681206662852
C         1.93635736280555    1.28105915584994    0.30979331500321
C         1.62302725229670    2.39957206214503    0.60555036441975
C         2.82310836480094   -0.00807211496629   -1.59333541551732
N         3.64650707621670    1.13954582431505   -2.01251974859950
C         4.97542178027580    0.91972894345149   -2.22223299642522
N         5.52142129987149   -0.24672245846592   -2.24238768587837
C         4.76585993494506   -1.40175476473758   -2.27987109307537
C         3.44544815709703   -1.33986908579319   -2.02679865335178
S         2.43768247793413   -2.76017917612417   -2.00073542409213
N         3.52661756973799   -3.92745586156517   -2.45553816702135
C         4.80439354607574   -3.91740407660603   -2.64063700780660
C         5.56505984897342   -2.65629994114347   -2.40648995837248
O         6.78861454950447   -2.60254118196431   -2.38045362186422
H         4.57579261659344    0.60759915365979    0.50117674094665
H         4.48860655634678   -1.05195039260947    0.55588925637437
H         3.67557478937310   -0.10280645903875    1.88653154486882
H        -0.04579757662137   -2.62003147549706    1.09438747677490
H         1.06563349389698    3.22419084624888    0.99462910778776
H         1.83805801742142    0.15801789782979   -2.05306217002029
H         3.27028878045236    2.08253278487049   -1.98231533443209
H         5.59847562691825    1.83057597603832   -2.19468221321119
H         5.24923053977536   -4.90920549646686   -2.81730166709324
