26
 energy: -46.149212976830 gnorm: 0.218305514815 xtb: 6.4.1 (79825abcba525fcdf90b791dcacef51065a7a4e7)
C         3.47877444598690   -0.41112232416330    1.01785816990182
C         2.35976506052066   -0.06803483141989    0.00993571476851
C         1.22443642615855   -1.05947896436941    0.20611131985458
C         0.25647945501444   -1.57039597837333    0.91467316193881
C         1.83361382222634    1.31494036147936    0.17574171422177
C         1.57939507368824    2.46065336703097   -0.06804847242395
C         2.95572581678199   -0.12617850024599   -1.46429314556132
N         3.76848944437648    1.06114448321634   -1.78116424236155
C         5.08803258571512    0.92099586704321   -2.09337835932056
N         5.68162874506377   -0.16437632875094   -2.45218380649229
C         4.96850561471527   -1.34197161391116   -2.34681621418697
C         3.74837365118911   -1.39891804790507   -1.78166328986276
S         2.84483637523798   -2.81748515341848   -1.32907136452032
N         3.72303372179463   -4.03403550429259   -2.03895493904298
C         4.80698787252057   -3.88715481017321   -2.72491668310092
C         5.56030634889523   -2.60845063629611   -2.87068565698416
O         6.52579609658326   -2.52255625545946   -3.61975554357093
H         4.31811869887394    0.27929916091261    0.86514483713799
H         3.82208452602917   -1.44743996720165    0.92591350788704
H         3.03884654420984   -0.22424381600003    2.00415415262156
H        -0.58584170569722   -2.14885034054867    1.21890538476418
H         1.32430562819164    3.49397594165935   -0.16417361459898
H         2.07136102116731   -0.04379442373824   -2.11265303038386
H         3.46583058664296    1.95148704650977   -1.39728319779332
H         5.71028287612639    1.81301110713579   -2.28235148836426
H         5.30232194433725   -4.76151546906453   -3.17535869041036
