26
 energy: -46.152012278113 gnorm: 0.221050913639 xtb: 6.4.1 (79825abcba525fcdf90b791dcacef51065a7a4e7)
C         3.65384851701657   -0.35923157018812    0.99974887247052
C         2.47892225195148   -0.01338592199235    0.05861245152534
C         1.30233328685720   -0.95861153504581    0.23917934435836
C         0.08122383251946   -1.41540667834330    0.22284908760857
C         1.78787441870197    1.28839693863060    0.27018140234995
C         1.13483172080059    2.28896702530699    0.36564791724136
C         2.96795039786798   -0.08176419466752   -1.45402648065247
N         3.94276012269400    1.01220896037924   -1.60796355662727
C         5.20973842865800    0.89048989773805   -2.09608632677365
N         5.70853022149528   -0.24019436046081   -2.45925352827407
C         4.95484591797589   -1.38885086289085   -2.32168240893110
C         3.71873064428275   -1.37507407083663   -1.78952455612041
S         2.82225099606227   -2.80684683301766   -1.36537516393436
N         3.69955111480760   -4.03376275047378   -2.05832672153950
C         4.82787350490319   -3.86451215626942   -2.66274121316508
C         5.53559630146853   -2.59254911464559   -2.98687106266048
O         6.57543705157893   -2.49153802883304   -3.62654439227802
H         4.10885840056255   -1.30640240291970    0.68299126425834
H         3.24235567757644   -0.51777644150042    2.00264819853988
H         4.41976760128724    0.42423027802174    1.02795143668723
H        -0.79320258555556   -1.99086030143181    0.42509448431960
H         0.45130092182310    3.08661985082122    0.56212139861234
H         2.10563255068676    0.00235792979458   -2.13121933724085
H         3.70323535621604    1.96131768420696   -1.33685944205669
H         5.92999817874391    1.72095285419169   -2.19685649976505
H         5.28008067214593   -4.82323714473474   -2.96126338016902
