26
 energy: -46.151505055787 gnorm: 0.222748159933 xtb: 6.4.1 (79825abcba525fcdf90b791dcacef51065a7a4e7)
C         3.75301415088203   -0.24091661164256    1.10266047200234
C         2.56637365117668    0.00944210068362    0.14610229940270
C         1.41028227010104   -0.95270649506995    0.36551117805789
C         0.20278650036181   -1.44071110877426    0.30352532212123
C         1.91981493759097    1.33921130172378    0.32109613127846
C         1.31870742932241    2.37575907752309    0.29015119771958
C         2.90219048951052   -0.17124730008913   -1.39872100238919
N         3.72448234184747    0.99259689918278   -1.77292772607692
C         5.02294633968184    0.89354540611401   -2.17603248214993
N         5.64194866221350   -0.21054325884241   -2.41468474780739
C         4.87463537677524   -1.35720510027960   -2.36201090295945
C         3.64801192439829   -1.44379294146388   -1.81496411942243
S         2.74524438940854   -2.90288437772244   -1.51560705903870
N         3.72845043380534   -4.09574531485481   -2.12021328217428
C         4.89973696709826   -3.88578862875739   -2.62129222121596
C         5.54921051212228   -2.57356651264470   -2.90427441964441
O         6.58953863735060   -2.54352379196760   -3.55039268784733
H         4.31865321281038    0.69664575717337    1.17703263392181
H         4.41408321994925   -1.05947345062960    0.79733724240139
H         3.34979735608764   -0.61537523274429    2.05051956247223
H        -0.66981558122521   -1.90568832932584    0.70231527688972
H         0.93849147601101    3.35814826867451    0.47018874196085
H         1.94810685396324   -0.10159838218590   -1.94106057567934
H         3.33468167735724    1.92968765413995   -1.73301178714119
H         5.65173150517391    1.79624420233906   -2.08459093583869
H         5.37654695222091   -4.78273236886495   -3.04662100455189
