26
 energy: -46.147649545959 gnorm: 0.230202971126 xtb: 6.4.1 (79825abcba525fcdf90b791dcacef51065a7a4e7)
C         3.69941233048241   -0.30469345041713    0.94061740127095
C         2.46441999206739   -0.01447119811963    0.05950239044633
C         1.34888399850393   -1.02445283357200    0.27382451338446
C         0.44567446155148   -1.71573646313796    0.91130097637032
C         1.88087857981158    1.33590455026312    0.28952821839990
C         1.50140292068344    2.47255152553128    0.31693231706084
C         2.89800202753981   -0.08851332962117   -1.46968857544498
N         3.65629096295464    1.05736375129934   -2.00137596073768
C         5.00701648335757    0.90612228856864   -2.10616137699885
N         5.63109844519780   -0.21550013285866   -2.21393618381078
C         4.87394279772138   -1.36964407840561   -2.18161469148368
C         3.56502111171878   -1.40874574190050   -1.87087715018724
S         2.55567911237301   -2.82332723993889   -1.98809321889471
N         3.61529425009768   -4.03693167272717   -2.38751789016586
C         4.87656051661194   -3.82359358182046   -2.56292690470495
C         5.67801654897067   -2.56603969675835   -2.56986634956899
O         6.83966937556853   -2.65443345395832   -2.94855255562081
H         4.11871117367346   -1.27442388515555    0.64344181987027
H         3.46211360458362   -0.22659365170148    2.00732243249507
H         4.43459342015042    0.45155984780821    0.64257442966683
H        -0.22445623401841   -2.29568425174665    1.50397039430545
H         1.18570269022044    3.49351063810876    0.31044693290812
H         1.97756572894960   -0.02126853918842   -2.06762998542256
H         3.18470467353380    1.94608302030684   -1.86187200167230
H         5.65820274678467    1.79342474058145   -2.19129812882240
H         5.54223600017706   -4.69983765258239   -2.52011459915466
