26
 energy: -46.144889547401 gnorm: 0.224695015966 xtb: 6.4.1 (79825abcba525fcdf90b791dcacef51065a7a4e7)
C         3.79604890061227    0.25805246541810    0.94340208107391
C         2.54487944977510    0.14774025006113    0.04439990791010
C         1.65607014084206   -0.99770272674420    0.50090381907088
C         1.20690240617086   -2.02133068491173    1.17207511409608
C         1.79164337827913    1.43209903892593    0.04664502499665
C         1.23888720739197    2.49431227611209    0.10033634306301
C         2.85760963442415   -0.10819625079551   -1.49462477376816
N         3.77828777158475    0.89919221767055   -2.04982575054670
C         5.11569207391995    0.73171810481738   -1.84582683920359
N         5.65943536142124   -0.43086034765479   -1.73680783812092
C         4.86973108865083   -1.54477409125782   -1.94160270594621
C         3.53216189684589   -1.44203055862400   -1.83336604484389
S         2.41392573564591   -2.71119526120482   -2.24848115052812
N         3.41172935364103   -4.00661776849503   -2.53383793691517
C         4.70221541431078   -3.97031259194436   -2.55388094361198
C         5.51408560729653   -2.72023928962758   -2.59866073604766
O         6.62861855132354   -2.66811646913450   -3.10438153211628
H         4.65312578853343    0.76013939347476    0.47667959183842
H         3.98868563432699   -0.73828000727947    1.35629744383250
H         3.41192399197256    0.91821308645696    1.72945291234769
H         0.77280517789732   -2.89509655609563    1.60191743449125
H         0.55903608126693    3.28699941044393    0.32730717274407
H         1.87172154655050   -0.05994714474424   -1.97934682589925
H         3.54183487014539    1.88155065950777   -2.15345412964533
H         5.68606971190274    1.67562750127237   -1.89380455284393
H         5.25940321393832   -4.88631028156149   -2.80537726437828
