26
 energy: -46.143660940687 gnorm: 0.223349085400 xtb: 6.4.1 (79825abcba525fcdf90b791dcacef51065a7a4e7)
C         3.79765206197682   -0.15711736490745    0.80534404458274
C         2.51022352637651    0.04203155864105   -0.02451509202012
C         1.33860590911262   -0.86975820224894    0.30162759415775
C         0.19970874906362   -1.49988988226478    0.22491965825637
C         1.88030735947811    1.36984315208609    0.21437642302351
C         1.06801827481565    2.16828310578148    0.58773846519389
C         2.88916923568313   -0.06015110564524   -1.56654606320856
N         3.85695177994565    1.01211884204206   -1.85699744464934
C         5.14019978485302    0.83024892417030   -2.27950341534250
N         5.62799910273605   -0.30587452899816   -2.64062097305684
C         4.84452835054190   -1.42198417852903   -2.42417134326068
C         3.58778238876497   -1.37063332930838   -1.94530242692334
S         2.70364392835599   -2.79811695276587   -1.48254827468376
N         3.63532760510899   -4.02901960565899   -2.09246975761127
C         4.87627328480551   -3.97262645994903   -2.44453181960333
C         5.61956303325403   -2.68758991136933   -2.58603490883292
O         6.82358448514562   -2.64670597822388   -2.80810437767987
H         4.62353559271709    0.11275389396178    0.13483090989462
H         3.91503760533599   -1.20995119559913    1.08468514555295
H         3.79272213577168    0.46184520307400    1.70983336708957
H        -0.71635818371584   -2.02693440620792    0.36533717455589
H         0.52968587152293    3.01285065340867    0.96052540138742
H         2.08545058423109    0.25740234444603   -2.24658643304851
H         3.54348291595828    1.93408463379250   -1.56821850041882
H         5.65622258827695    1.78658968437205   -2.47374624820551
H         5.48877728417704   -4.86351028776512   -2.65411537950001
