26
 energy: -46.153501499287 gnorm: 0.223632162769 xtb: 6.4.1 (79825abcba525fcdf90b791dcacef51065a7a4e7)
C         3.72701866059827   -0.00343357570684    0.99176208701152
C         2.49951944247920    0.09639805197314    0.05951854825046
C         1.45348326344060   -0.97879133842429    0.30486226116036
C         0.93131471514941   -2.12952874619999    0.62607901355655
C         1.76158860172170    1.37200389146157    0.27220365178554
C         1.27144102187121    2.46543612616031    0.24253191041518
C         2.86742466412453   -0.03461810885760   -1.48300573570907
N         3.78992174641999    1.04408767065227   -1.87812706617870
C         5.13694150227799    0.83514575546233   -1.86418227985254
N         5.69172536058523   -0.30962474144932   -2.06628607217661
C         4.88434132665337   -1.42062806942423   -2.20834322661958
C         3.61344293093448   -1.34172438650536   -1.77250582716132
S         2.57301184913597   -2.73356942423270   -1.89007400143118
N         3.48294581179533   -4.06624875701208   -2.27884900945067
C         4.71380443187565   -3.91747916014578   -2.63930527883265
C         5.51640722918946   -2.66460243922644   -2.73905679444425
O         6.62073531200443   -2.66260773597106   -3.26925439928533
H         4.01844820615000   -1.04912487162067    1.15331856323624
H         3.42601486639352    0.44333752992148    1.94573388188201
H         4.61662812452291    0.50896430646143    0.60798701312633
H         0.25902676837513   -2.92618274961633    0.84978182264459
H         0.79815155521427    3.41545295664551    0.36715659282334
H         1.98015682964833   -0.00938057221196   -2.13214179787226
H         3.44949816667949    1.99065717828733   -1.73743278705323
H         5.65882854494265    1.80769778323222   -1.84484504702535
H         5.23973853628982   -4.86087696720967   -2.85414080691420
