26
 energy: -46.153418377298 gnorm: 0.218032041592 xtb: 6.4.1 (79825abcba525fcdf90b791dcacef51065a7a4e7)
C         3.61404132341670   -0.35553010908120    0.94087809641899
C         2.44848548505077   -0.02279268013969   -0.01649543817288
C         1.26135318023325   -0.94764877120181    0.19745674527990
C         0.28483215532242   -1.67269098465447    0.66730485208991
C         1.92831402438360    1.34591937368155    0.25368245645254
C         1.48597500327740    2.40385909094815    0.60270803641531
C         2.90985087360778   -0.09448730073607   -1.53764713797219
N         3.79392970310539    1.04157740046666   -1.85147749853426
C         4.98516898636147    0.91027439924315   -2.50110961308206
N         5.52427843886438   -0.21337200385494   -2.82654826502898
C         4.94010098040160   -1.37685196951559   -2.36673453759649
C         3.67030050338519   -1.36878349436492   -1.92074755587247
S         2.66775416315650   -2.77029284993077   -1.66732288576115
N         3.61809504101461   -3.98579870256553   -2.27933413221611
C         4.86728255126344   -3.87192340066107   -2.58533582809696
C         5.71075831678322   -2.64276290713578   -2.54615915799236
O         6.93551804852382   -2.61934761726683   -2.55448480645842
H         3.82002518577112   -1.43335831555774    0.95982447580630
H         3.32566423498006   -0.06459998182661    1.95698252257640
H         4.52769349324056    0.21591520721526    0.74105353041233
H        -0.66967785682149   -2.14423178937820    0.72415143752982
H         0.99954079782380    3.21122407408555    1.10630485528674
H         1.99469364034927   -0.06021321946468   -2.14639280781746
H         3.39621217047806    1.90714796991576   -1.49893632964455
H         5.53227006590109    1.84039907378948   -2.73380244807592
H         5.41209279795887   -4.72564196421025   -3.01789428694768
