26
 energy: -46.152331968588 gnorm: 0.232458168583 xtb: 6.4.1 (79825abcba525fcdf90b791dcacef51065a7a4e7)
C         3.67227958029681   -0.12649834859956    0.96249024322372
C         2.49849185092325    0.05608927812788   -0.02477002091082
C         1.47200192136999   -1.01686202356345    0.30005512658415
C         0.60118364979612   -1.82890385893662    0.83137458687232
C         1.73800128648793    1.31019967530126    0.23176138074650
C         1.56162547386609    2.47669624253374    0.44364921750655
C         2.89300180490641   -0.03483041903284   -1.56359949465251
N         3.79589046205695    1.08959531737663   -1.86557087292919
C         5.09264000630744    0.87408500139378   -2.22655468531115
N         5.64839365720150   -0.28003068137893   -2.36177828653164
C         4.86967776589417   -1.41933326582753   -2.31740745148551
C         3.58922219637024   -1.35607896776831   -1.90777937695304
S         2.52866776283413   -2.73470883195969   -1.99808822991711
N         3.54177270169384   -4.03899908704759   -2.16423677148643
C         4.81249628343545   -3.93992959847066   -2.37044265790116
C         5.59888181768193   -2.69254115679429   -2.59279721815394
O         6.77195549493466   -2.76693533959957   -2.93778654542383
H         3.83793394329779   -1.12922489753302    1.37673661905126
H         3.47746420910171    0.50559844778347    1.83585757848423
H         4.58546922837279    0.16986703287895    0.43382009460564
H        -0.17724888511295   -2.52999905034320    1.02931384837507
H         1.07670025817895    3.42554538110700    0.52488383411854
H         1.94509265546546    0.08172548616626   -2.10870657395054
H         3.31203926795929    1.96343147652309   -1.68124694551501
H         5.70649214063316    1.76199400027155   -2.45764042966745
H         5.28961317300765   -4.93217387144999   -2.39434204825523
