26
 energy: -46.155917583066 gnorm: 0.212840307291 xtb: 6.4.1 (79825abcba525fcdf90b791dcacef51065a7a4e7)
C         3.84197157512951   -0.08229036279611    0.84946702077811
C         2.54211560923910    0.01431942011086    0.02070908424477
C         1.59421394076348   -1.13583998812279    0.31909338642096
C         0.52320245593237   -1.86004256152200    0.48791813758272
C         1.95578757948552    1.35072913470675    0.31596429474498
C         1.54831775337700    2.45185871150296    0.55721333958807
C         2.82349794730961   -0.04992882839966   -1.54409019603455
N         3.62269290922225    1.08718607438328   -2.03295110363861
C         4.94800565820566    0.91256310400052   -2.30009587891442
N         5.54184568892416   -0.22892508228324   -2.24102560920020
C         4.82751023898938   -1.40120370581369   -2.09315641461288
C         3.49695423922664   -1.38205488227085   -1.89162028898564
S         2.53437478543989   -2.83337170594003   -1.86569776500447
N         3.53500265508941   -4.00869142569919   -2.47604803549951
C         4.78355898647929   -3.83116111968496   -2.75293093974380
C         5.59711552489486   -2.66136432792391   -2.31301852477469
O         6.81972018155132   -2.73383388512187   -2.33831703939417
H         4.48436285905653   -0.89997146535779    0.49842142032656
H         3.62321338194779   -0.29351186478390    1.90198790862690
H         4.34549548400184    0.89087045141699    0.82374543261790
H        -0.04297303315760   -2.75303463156654    0.62460063767002
H         1.27361628418477    3.48302274432860    0.61471155722430
H         1.85359868396875    0.04316658594916   -2.05388175047292
H         3.23597568898870    2.02639719135792   -2.03598247004369
H         5.47061877377202    1.84717360873076   -2.56837967182108
H         5.32766653318281   -4.71603410273261   -3.11859088399605
