26
 energy: -46.151709144148 gnorm: 0.218231293470 xtb: 6.4.1 (79825abcba525fcdf90b791dcacef51065a7a4e7)
C         3.91680718320619    0.08767778086135    0.87933311417194
C         2.62756866784987    0.08781331867738    0.02864943176112
C         1.58006632949129   -0.95984599650813    0.36859979137556
C         0.47385558684262   -1.60827889436886    0.60496674440874
C         1.90586652331883    1.37989644804086    0.19178845121038
C         1.16551687604112    2.31878581994364    0.27598027470702
C         2.96272562381085   -0.07712246429649   -1.51807829183468
N         3.79822123526867    1.07202009370485   -1.90813770044175
C         5.07347588735100    0.84831094288281   -2.33474428597943
N         5.65392011594720   -0.29725556581611   -2.43420495080612
C         4.90172841146238   -1.45016179591183   -2.32746953846838
C         3.65518418004763   -1.41025878970206   -1.82160595657712
S         2.60160341591035   -2.77352070747886   -1.56658397241230
N         3.34889686842280   -4.03076452816134   -2.35147281624910
C         4.59926006874655   -3.96257216237454   -2.66614045395795
C         5.51513559455295   -2.78986451583129   -2.56739590742301
O         6.72477482511443   -2.95502637208680   -2.66813557805155
H         3.83018672184686    0.73259637324562    1.76311977623665
H         4.79013798514255    0.35548620587440    0.27448450071038
H         4.09201725807817   -0.91820447751928    1.27775777335335
H        -0.36268245747601   -2.26916848674209    0.61500037851452
H         0.71091183297647    3.25985736142124    0.49910539550770
H         1.98873007434134   -0.06590480917600   -2.02843659634356
H         3.37883496490662    1.99556527736193   -1.85469268137106
H         5.77956218978511    1.69418928261865   -2.40204527753031
H         5.16477968870784   -4.79846597252108   -3.10685522264412
