26
 energy: -46.149729596756 gnorm: 0.216540035094 xtb: 6.4.1 (79825abcba525fcdf90b791dcacef51065a7a4e7)
C         3.98799249544355   -0.35586146219440    0.67837364774760
C         2.65816603650200    0.02000562841581   -0.01161491453407
C         1.58665959489706   -0.88217688113046    0.57860377878165
C         0.48481710806767   -1.55739769869575    0.75197261749307
C         2.15170596390349    1.38261904522391    0.31045651595657
C         1.54436544430135    2.40959281960353    0.42526711591494
C         2.72672837056200   -0.09271288606003   -1.59733064671877
N         3.47877319311212    1.02873725241798   -2.18682708359303
C         4.83254332329390    0.87199654586752   -2.15438968956070
N         5.49665423723299   -0.22974713104068   -2.08921204255889
C         4.75494517390438   -1.39391025550180   -2.12034865270910
C         3.41943716451063   -1.41230709831075   -1.95469040698948
S         2.47679194696708   -2.86686382994373   -2.12567696616238
N         3.63931077954825   -4.03275067569301   -2.33643239266633
C         4.92111009278463   -3.89052197797769   -2.39836438835935
C         5.63209519210381   -2.58074233679526   -2.34545723943592
O         6.83695478785976   -2.41747065016005   -2.49482155555524
H         4.83179318897446    0.33844349215810    0.57618276443696
H         4.25447443487740   -1.32667001674478    0.24618385388295
H         3.88132033683719   -0.54316497383522    1.75297978064125
H        -0.10047168865211   -2.24615523228373    1.31741201885185
H         1.05996055099083    3.31960307275811    0.70686869168221
H         1.69637530468164   -0.06502420558530   -1.98055989738840
H         3.12666964004933    1.97750578447252   -2.27365035820364
H         5.46721072028684    1.75463159421148   -2.34609291142309
H         5.38832513577706   -4.86573689599901   -2.60675433575256
