26
 energy: -46.149164684650 gnorm: 0.209718645660 xtb: 6.4.1 (79825abcba525fcdf90b791dcacef51065a7a4e7)
C         3.86783877743759   -0.17295711792818    0.81850326608553
C         2.55875856921181    0.05168396755315    0.03005915916255
C         1.49289128713160   -0.93170457011420    0.48535179647608
C         0.33351476896634   -1.51300624491372    0.35129493677372
C         2.10203375318887    1.46385925431359    0.14884702821531
C         1.46421118465822    2.47756075268831    0.19691749725519
C         2.82088941484008   -0.12407011827178   -1.52952366701579
N         3.68125266312583    0.97836056155336   -1.99336584675038
C         5.01707047072283    0.84179897828537   -2.22842992232317
N         5.58902993778406   -0.30794057959794   -2.32888825955988
C         4.86725209227721   -1.46214126158510   -2.09816086401665
C         3.55817574300761   -1.44293365623711   -1.78621066256149
S         2.56004865122399   -2.85720811612231   -1.59354056426633
N         3.51975203482378   -4.04683793693391   -2.24077339211289
C         4.73826071193767   -3.85230277534431   -2.62086118684042
C         5.64609288107003   -2.67795816178881   -2.47741371038876
O         6.85004929060483   -2.72626337256883   -2.69834256841637
H         3.79979115156754    0.13327893389000    1.87021185923267
H         4.76066222151329    0.33554800632339    0.43829447186810
H         4.04366473349546   -1.24290482051520    0.65870010567949
H        -0.51412875620582   -1.98225154361005    0.79624543270083
H         1.11517683845066    3.47775703052740    0.33780272468808
H         1.81845792139201   -0.05458804674957   -1.97624742078040
H         3.29628010114904    1.90632424293325   -2.14288660581513
H         5.50621063178551    1.78355349306806   -2.53246576758573
H         5.14728916495910   -4.77413240532912   -3.06322559360813
