26
 energy: -46.151576380277 gnorm: 0.225025791676 xtb: 6.4.1 (79825abcba525fcdf90b791dcacef51065a7a4e7)
C         3.67366401490953   -0.33214948473375    0.98867370538214
C         2.51326802977585    0.01997633284331    0.03196724330727
C         1.27312965798788   -0.81157574570570    0.31656413434875
C         0.25871880190602   -1.62775468317984    0.24685530163778
C         1.98969271012236    1.37316218180066    0.36618882559962
C         1.42403806470414    2.42396489823851    0.47829404581817
C         2.91573815160165   -0.11587351795079   -1.50148091019187
N         3.75785933575760    1.01623306240177   -1.92562059503268
C         5.11225129940326    0.90870271124123   -2.03685470268274
N         5.64377173467480   -0.23666963030793   -2.29129287055158
C         4.88943953482114   -1.39281174692115   -2.26491239411331
C         3.60398176411598   -1.43516157833219   -1.86846877286794
S         2.71915861844792   -2.88204428833117   -1.47202191073133
N         3.79754218239290   -4.04016490146865   -1.97302646316964
C         4.93256831065171   -3.85691794766511   -2.56057246098187
C         5.55687958071890   -2.55293061288553   -2.92618724049347
O         6.50825270061371   -2.49969631428751   -3.69606338911718
H         4.63372517386827    0.12538295348462    0.71765969177162
H         3.84576508690605   -1.41377098564350    0.96136001630710
H         3.37598982264048   -0.08943916286913    2.01518316506047
H        -0.67392737564088   -2.12945199921536    0.36991031591187
H         0.77083306053140    3.23834560261776    0.70670923121515
H         1.98723079149520   -0.08749717138785   -2.08997698539504
H         3.49569862165770    1.90363305922487   -1.50672928375940
H         5.70991731639341    1.83637360159265   -2.06548171614780
H         5.45890719581058   -4.74193743532165   -2.95104434823868
