26
 energy: -46.149848851597 gnorm: 0.228107224669 xtb: 6.4.1 (79825abcba525fcdf90b791dcacef51065a7a4e7)
C         3.64717463392665   -0.43105593290220    0.87809583416266
C         2.46657702139807   -0.01095700133291   -0.02495724349068
C         1.25634235927036   -0.79336453275997    0.45835212875756
C         0.35510007567527   -1.64777391018650    0.85557212431651
C         1.99260110444021    1.38243892728173    0.20030204880995
C         1.51785710805644    2.42986760259088    0.53828196006426
C         2.82165762650410   -0.14682808977851   -1.57006482754998
N         3.58482577760300    1.02467468951081   -2.03469746651777
C         4.90731153750989    0.93647043156260   -2.35338982223283
N         5.62772569529177   -0.13074951168008   -2.38767674948293
C         4.97576203966982   -1.31229769268893   -2.09567522895125
C         3.65643530276208   -1.40230339191859   -1.84539801239076
S         2.68732993955880   -2.84947818402005   -1.85386096669988
N         3.63519495718554   -4.03349857402239   -2.52825525303906
C         4.90213697728058   -3.81347405807829   -2.64453590010614
C         5.70057169305928   -2.57003546964236   -2.44407597880893
O         6.89127688909875   -2.68960725234227   -2.70594945845431
H         3.53709472666432   -1.41427925668094    1.35312874707319
H         3.66394664958079    0.22061759152906    1.75861284520687
H         4.61839967156480   -0.33590725801720    0.37918847710234
H        -0.46552223708232   -2.16566260483338    1.29720765780751
H         1.11185697569174    3.41563692023546    0.61236943341861
H         1.86593368928986   -0.20162488585230   -2.11121899283604
H         3.15262997680213    1.90490728931940   -1.76998199068049
H         5.43949255331753    1.88170058161634   -2.55813548808914
H         5.46537227150113   -4.64921385002592   -3.08845640680698
