26
 energy: -46.151447354865 gnorm: 0.223322311033 xtb: 6.4.1 (79825abcba525fcdf90b791dcacef51065a7a4e7)
C         3.84573146541697   -0.07913319618601    0.83159638637704
C         2.53836643558445    0.06826463420103    0.02235646142515
C         1.49236685482597   -0.96606622121748    0.40505999765146
C         0.41865765527192   -1.70526638833576    0.37733929956029
C         1.91938580129269    1.39778217624773    0.27963685952783
C         1.62574349647478    2.53632369862252    0.51248124098901
C         2.84907002040488   -0.10517908452117   -1.52854043925546
N         3.66080317679426    1.02418085152283   -2.01471251901061
C         4.97918370896305    0.84984052097273   -2.31436500791492
N         5.61352412465885   -0.27072617337228   -2.28160713658414
C         4.82864121508128   -1.40377203638641   -2.20071531572012
C         3.55011422776880   -1.44422274561897   -1.78227150204413
S         2.56223148711920   -2.87643175356201   -1.70216692314859
N         3.54512528299624   -4.05440511976296   -2.33577449968612
C         4.78194593866472   -3.91255903214578   -2.67816084862987
C         5.57661637633256   -2.67197284700414   -2.44736545532598
O         6.78299427100703   -2.67415805388195   -2.66020717063508
H         3.94256786064696    0.82219460865794    1.45025046101014
H         4.68808656804396   -0.29080653994178    0.16383732440618
H         3.81024304349954   -0.91047179463374    1.54493824099036
H        -0.35785787111808   -2.40393578471633    0.59077861185398
H         1.09740564678410    3.42880431184992    0.77017035237333
H         1.93180246498185   -0.09159549526424   -2.13491860562421
H         3.21098473134716    1.93348425667997   -2.06478850093209
H         5.54498658343236    1.77997036001752   -2.49691101655850
H         5.43654846604587   -4.72201442569798   -3.03737931816774
