26
 energy: -46.149653922188 gnorm: 0.227063579138 xtb: 6.4.1 (79825abcba525fcdf90b791dcacef51065a7a4e7)
C         3.88401677278143   -0.22651526857744    0.60960900416130
C         2.53308720044886    0.00407247091713   -0.10286365522163
C         1.33450281653397   -0.80326036570581    0.36833334144388
C         0.30273821896660   -1.51865177942618    0.72006293817871
C         1.98601807812334    1.36246233633699    0.16628221043029
C         1.72394043620000    2.50576965600182    0.41302661861705
C         2.80146989967325   -0.14090997144935   -1.66454591469553
N         3.60237423520156    1.03489780863125   -2.04763363426034
C         4.95721170034175    0.89695173346871   -2.10845898111875
N         5.58142877241492   -0.21164152784419   -2.30971649291899
C         4.86499001187605   -1.39193323521031   -2.31185675436251
C         3.58773100204275   -1.43699364064518   -1.89002535840970
S         2.56051405191935   -2.83640805451300   -1.74854624600187
N         3.60631929467892   -4.10563738696752   -1.97328681603322
C         4.83549361297796   -3.92904109784137   -2.32686608857238
C         5.58169723976931   -2.66824959579442   -2.60508655585510
O         6.76516074119588   -2.77622467639265   -2.90242392458046
H         3.70634061206615    0.14567967185506    1.62666557730979
H         4.71255587316233    0.27375694202889    0.09626646326670
H         4.21137158725471   -1.27234244167117    0.62761583192738
H        -0.59290103492581   -1.98078324625670    1.06782213833621
H         1.52182438915325    3.52840680467419    0.64845936473838
H         1.86675049638141   -0.23552727907486   -2.23604042103795
H         3.12641719059164    1.88843260654630   -1.77083015286453
H         5.56662956898727    1.81700478026331   -2.08181858499060
H         5.41239602773775   -4.86583461898639   -2.27826657905165
