26
 energy: -46.153489763765 gnorm: 0.220679143037 xtb: 6.4.1 (79825abcba525fcdf90b791dcacef51065a7a4e7)
C         3.57479793724431   -0.65486424259599    0.87458754140039
C         2.42208233931043   -0.10725699773349    0.00443137660082
C         1.12144410102217   -0.88097998083643    0.14624232618577
C         0.11604621257669   -1.61464202285517    0.53476755680044
C         2.16318520183718    1.31894783256202    0.34481232268604
C         1.79071925842849    2.43371016669675    0.57995732542486
C         2.84604887994795   -0.08115651111517   -1.52901956276402
N         3.69772540640790    1.10175079399929   -1.74374096340990
C         4.90511556234383    0.98650860645919   -2.36602839047565
N         5.49070963234193   -0.09957936107429   -2.73565396707653
C         4.87440484192901   -1.29193648278527   -2.41187859754366
C         3.63905945431163   -1.34470952316408   -1.88037176410214
S         2.74485462868447   -2.81711223776266   -1.62350667861261
N         3.69221850137701   -4.08629858214054   -2.12032429094503
C         4.90088963825571   -3.83038751668616   -2.49542115903903
C         5.65371035528118   -2.54877341502269   -2.61603603063219
O         6.86354449663191   -2.52457989074317   -2.80674526050191
H         4.24916306335130    0.16652916230174    1.14853372445276
H         4.19019324963123   -1.38048216624844    0.33141434007316
H         3.07579558636562   -1.12886553905116    1.72755842255950
H        -0.76788120625276   -2.20563505147221    0.61268534911894
H         1.63687080749128    3.47651328873355    0.75590763534102
H         1.91731076943611    0.05903416612042   -2.10090316628235
H         3.31105964268827    2.00615898060223   -1.49033942427978
H         5.43767656015936    1.93619324776290   -2.54789461060136
H         5.45016846368268   -4.67764809967778   -2.93496943271128
