26
 energy: -46.146386971418 gnorm: 0.225371024409 xtb: 6.4.1 (79825abcba525fcdf90b791dcacef51065a7a4e7)
C         4.01285288610505    0.02540446094886    0.91842532770923
C         2.76820038523622    0.15976629646938    0.01366803814164
C         1.74878775451563   -0.91050315427578    0.36826452667960
C         0.62588077876673   -1.56755182894604    0.45430961885975
C         1.98204021112734    1.40610117950878    0.22708942517317
C         1.25278157823188    2.34856415765669    0.35618048683421
C         2.86983632669512   -0.07296398016159   -1.55713029780632
N         3.58613549210585    0.95180351191471   -2.33654994265674
C         4.94066496881419    0.80663467116971   -2.28665694957060
N         5.58822115070175   -0.30225664187349   -2.18585212065456
C         4.82745994763032   -1.44428893655968   -2.03293960435663
C         3.49369953771925   -1.44125937489187   -1.85283756044998
S         2.44996476566240   -2.83535294972240   -1.82690431657067
N         3.48063369654287   -4.03758407572169   -2.32442004945624
C         4.73013994657752   -3.87675381448876   -2.60715989485613
C         5.59161533594853   -2.68725353437782   -2.34875915336423
O         6.80842546703679   -2.79912545256108   -2.43542964080014
H         3.70989441992666   -0.68686556701690    1.69649315187141
H         4.35837415475063    0.97448005542060    1.34285489478620
H         4.86744613253249   -0.40663817792375    0.38527484363562
H         0.00913360843727   -2.32258979961085    0.88583277317146
H         0.69890090654226    3.21234772902775    0.65477780164031
H         1.86798896692447   -0.04243782534385   -2.00948944136705
H         3.13169020996941    1.84765182682898   -2.48692350306939
H         5.50237498948594    1.73205691501582   -2.50269626484728
H         5.21750337647746   -4.83292890872636   -2.85407382667720
