26
 energy: -46.151492762784 gnorm: 0.222068763739 xtb: 6.4.1 (79825abcba525fcdf90b791dcacef51065a7a4e7)
C         3.82660948648233   -0.26778809700793    0.79599921744330
C         2.51612519687718   -0.09073760865784   -0.00217541751942
C         1.37943827744052   -1.03949839493445    0.34164612170467
C         0.31355620455905   -1.60829107782903    0.83195934372796
C         1.89027640402389    1.22004683756693    0.32509291284686
C         1.41934759122772    2.23963623801437    0.74387999764398
C         2.86536428751532   -0.08529110755020   -1.55456165423427
N         3.65127210125023    1.09688877029275   -1.94893143254666
C         4.99578958568599    0.90244740286015   -2.06197426531849
N         5.64668186207253   -0.20351400215278   -2.17296601802807
C         4.95682285686729   -1.39928574071804   -2.19750366938271
C         3.63361473244821   -1.34897568356299   -1.95677167929972
S         2.56666327664209   -2.72555444745988   -1.97081450081831
N         3.54891044380948   -3.97328007288239   -2.45406525655731
C         4.82707784382221   -3.82789634409963   -2.56463523629593
C         5.71207708047213   -2.62779541418146   -2.58349776871956
O         6.87111672746757   -2.67806828108771   -2.97688525417427
H         4.68904287368361    0.21580394670001    0.31971217375099
H         3.96317805272223   -1.33680240768331    0.99304570819993
H         3.63404466429587    0.16649299862754    1.78370292726793
H        -0.53734208486678   -2.18966575376528    1.10517576514785
H         1.15138763259325    3.25879345390209    0.92159392500618
H         1.96151876502461   -0.08430187594367   -2.18091703184274
H         3.20133766696214    2.00312989516776   -2.03816677904267
H         5.62286033139949    1.80997322964488   -2.01982440039800
H         5.34410754507785   -4.77190365680973   -2.79763929614338
