26
 energy: -46.148165554314 gnorm: 0.211002522155 xtb: 6.4.1 (79825abcba525fcdf90b791dcacef51065a7a4e7)
C         3.70432214874703   -0.02197680067393    0.84673284915258
C         2.44029397886178    0.02238531091783   -0.03986937623899
C         1.43549515158613   -1.05432414364151    0.33628687939247
C         1.08853172791101   -1.88297051436393    1.28127278694170
C         1.76044261327796    1.32727108612538    0.18821479613017
C         1.27514197390622    2.42241481226127    0.14505652906049
C         2.91611611673474   -0.03277769879306   -1.55725231688375
N         3.81679028562328    1.09573680710940   -1.85045691668983
C         5.15254069939109    0.82621773703204   -1.88845299813817
N         5.68856472395191   -0.33345444287863   -2.05267614500792
C         4.84181366156700   -1.41159509787219   -2.21700195408134
C         3.50827822163043   -1.36044476796940   -2.04256104554037
S         2.45717423351114   -2.73153834353613   -2.26354637837829
N         3.46911643392589   -4.04492734412190   -2.34191949300749
C         4.74405367922340   -3.93983763345401   -2.51674865101430
C         5.53762657625570   -2.67927444710277   -2.58777128203610
O         6.74225359474485   -2.71366185128320   -2.80764681957679
H         4.45726582811968   -0.76348890873619    0.55052756146422
H         3.41512363422176   -0.24916205063169    1.87873138312790
H         4.18605456175858    0.96248579103261    0.84405175563068
H         0.51973083097401   -2.60858945061589    1.81663653053144
H         0.67776743986140    3.23637329004849    0.49531569148036
H         1.98319378554550    0.11632852998127   -2.11999740109199
H         3.30527967690492    1.97181536688137   -1.90065829633728
H         5.83834465332338    1.69118048862204   -1.87797281776163
H         5.38780063726427   -4.83110665081089   -2.57991356387431
