26
 energy: -46.148285582891 gnorm: 0.229421796890 xtb: 6.4.1 (79825abcba525fcdf90b791dcacef51065a7a4e7)
C         3.84705914739615   -0.07705369342479    0.87669702437081
C         2.54026019280944    0.08105743698139    0.06856582738495
C         1.53925488357707   -1.04777377921525    0.25335181196574
C         0.63060834860533   -1.93754905360256    0.54092472236406
C         1.85072403915253    1.38093501261511    0.29617354121773
C         1.27533258602424    2.43195972578233    0.26469633776605
C         2.85197996513215   -0.06863292535512   -1.48460003650975
N         3.68102405544771    1.06263117328662   -1.93588189139942
C         5.03170033973878    0.88534271348572   -1.98643653729307
N         5.62251646905852   -0.23609962390638   -2.21542111795726
C         4.89387523852494   -1.40811049021937   -2.25843361019028
C         3.61976163264868   -1.34961311603350   -1.82881132384351
S         2.61813928453230   -2.77254266799789   -1.75413961976881
N         3.43530251781839   -4.02608145986886   -2.47250218189754
C         4.68970715756358   -3.88828868586450   -2.74555199515581
C         5.57052838890860   -2.69345321657465   -2.60292017686586
O         6.78302494533806   -2.71967130703843   -2.77560108644865
H         4.15573456714605   -1.09129129856499    1.16049892134119
H         3.75366752871829    0.47404395652494    1.81894925695742
H         4.66333308011658    0.37970855274323    0.30546588903568
H        -0.08013070057134   -2.66958232799845    0.85019629115719
H         0.76359736956277    3.37014437543488    0.26637712475025
H         1.91275074583947   -0.15337084838688   -2.05022068573274
H         3.38785976684932    1.97495846217210   -1.59914676958632
H         5.55994145549681    1.85072602545168   -1.89929389221925
H         5.21725993152032   -4.82918465265834   -2.96727988063445
