26
 energy: -46.147244524786 gnorm: 0.220800206466 xtb: 6.4.1 (79825abcba525fcdf90b791dcacef51065a7a4e7)
C         3.85130892387066    0.14935938756935    0.93506914388885
C         2.57614707415544    0.09839519472103    0.06491766386088
C         1.67731487925010   -1.01674702813120    0.57381445405300
C         1.01997737457200   -2.13732388892395    0.68450172726066
C         1.81239485558210    1.36533677877115    0.23370362161966
C         1.21250587922000    2.40289758611606    0.25158925791102
C         2.82546839559844   -0.04483090215332   -1.50008259104419
N         3.72643118279382    1.04567008082533   -1.91215242425538
C         5.05806365823104    0.76758795007656   -1.82418265049360
N         5.64990221635421   -0.37257422310798   -1.91845833172709
C         4.82556299622790   -1.46019712167906   -2.12802666906345
C         3.50712612488896   -1.36534609471109   -1.87486615570423
S         2.46808513500481   -2.72741738980200   -2.18904335550949
N         3.49100031151831   -4.01879131308478   -2.39191759877321
C         4.78046270435545   -3.96938597752017   -2.43573438770311
C         5.56558586395654   -2.70304543958988   -2.49725646231074
O         6.61643305400264   -2.67081362023863   -3.12601340019819
H         4.34747291240350   -0.80518124016712    1.15226822961667
H         3.65287146786940    0.54157091260192    1.93859422146082
H         4.64659946144915    0.74294638290597    0.46987312706634
H         0.13956913163053   -2.70740933089347    0.87569677082532
H         0.65763438849899    3.30432661755768    0.10458743345460
H         1.85981013823489    0.09456167084887   -2.00736219989549
H         3.40112532555550    2.00105472315824   -2.02657797604593
H         5.66046228392466    1.69190436315082   -1.78740595053970
H         5.27336582898409   -4.93606951275269   -2.62369678157690
