26
 energy: -46.149542910618 gnorm: 0.215765740500 xtb: 6.4.1 (79825abcba525fcdf90b791dcacef51065a7a4e7)
C         3.76628391724056   -0.30010932107022    0.88607083384598
C         2.54838540699234    0.02204989153373   -0.00764912463734
C         1.47325730159959   -1.00283316752330    0.31504536744973
C         0.81097917062451   -1.83528878198342    1.06899637095722
C         1.89411029218194    1.33852707701790    0.22848438549169
C         1.38282920635213    2.39448579855875    0.47396747264504
C         2.82712601756790   -0.06795731823860   -1.57165136971941
N         3.69044830234230    1.05108683954132   -1.98775555215750
C         5.03535419793078    0.87215136148884   -2.12013238461089
N         5.65037972674122   -0.25929258832756   -2.14675473529149
C         4.85115419095054   -1.38403823643424   -2.19738450113365
C         3.51733843570774   -1.36111037684963   -2.01913583760112
S         2.42828071477829   -2.70788766014279   -2.20270034829484
N         3.50459262300654   -3.96950578062737   -2.27363991735659
C         4.78160886077165   -3.80287681322551   -2.36604322765011
C         5.66991752392475   -2.60764496247520   -2.44446669732279
O         6.87769334630935   -2.63038732496639   -2.64797182249015
H         4.06149746024169   -1.33596712919625    0.67547755495207
H         3.46084207558610   -0.27660329104756    1.93793709815260
H         4.66618292829369    0.31234770317838    0.75832867802426
H         0.15014944694553   -2.67174890712877    1.05138455735323
H         0.94627424954697    3.36992643787614    0.47272668919472
H         1.85722921406453    0.04427268517783   -2.07757961021348
H         3.26263475432129    1.92348422604186   -2.28368678060270
H         5.60898153827708    1.78964841775440   -2.33864619381328
H         5.43706427837930   -4.67057775278642   -2.53992160444139
