26
 energy: -46.152690923125 gnorm: 0.223361392616 xtb: 6.4.1 (79825abcba525fcdf90b791dcacef51065a7a4e7)
C         3.81143822639775    0.06611128865240    1.00967225128233
C         2.55359478262715    0.06050896252707    0.11323643424602
C         1.52254748469896   -0.98847621616737    0.49662787272357
C         0.59492842595601   -1.71833872050934    1.05057766280143
C         1.70728826344479    1.28550062355968    0.12362094544811
C         1.00479521199607    2.25663774423201    0.13435952576550
C         2.98489548293184   -0.10956753048818   -1.40891806791934
N         3.88416140500342    0.99648183489170   -1.78134723078672
C         5.22728739743331    0.77412070058262   -1.85121490002982
N         5.77720933698390   -0.38489715326798   -1.96694751058289
C         4.93054387326677   -1.46658199198959   -2.10656522013004
C         3.62786391455077   -1.45347825864375   -1.76860669637261
S         2.51870298588721   -2.78072294729883   -1.97289881190819
N         3.51675622775511   -4.00181433326437   -2.49057204978782
C         4.75582942737115   -3.85468849729612   -2.82242390544972
C         5.54799859516067   -2.59208725349533   -2.86855210060182
O         6.64898914007430   -2.54990326158000   -3.40399054326547
H         4.16670453748203   -0.96978540156340    1.08182387649084
H         3.63689493997955    0.46630942378008    2.01448366578133
H         4.59252328221315    0.70772058723384    0.58601727527280
H        -0.13753733720999   -2.45248370405991    1.29795727813944
H         0.25790835424316    3.01372590750195    0.23944874020781
H         2.07971284622375    0.04293492636033   -2.01443120884752
H         3.51647173102394    1.94314165942971   -1.76355954295489
H         5.98395206230537    1.55203828031459   -1.64897671566439
H         5.24791281482613   -4.79561382034963   -3.11444083378507
