26
 energy: -46.156636335155 gnorm: 0.225017856051 xtb: 6.4.1 (79825abcba525fcdf90b791dcacef51065a7a4e7)
C         3.70515138712187   -0.21344673914798    0.92738892487060
C         2.45736027911933    0.02867916172718    0.04978361622514
C         1.37697112675738   -1.00997938659952    0.30348639854534
C         0.68579808375217   -2.06779305714164    0.62496238094933
C         1.91017369612282    1.40303059444491    0.21917098327787
C         1.53877399121027    2.52803848766996    0.40121105840433
C         2.81746858038766   -0.04897551063239   -1.49818033421712
N         3.70387055613189    1.05925623704699   -1.89421292527203
C         5.05049946624550    0.84859262172699   -1.91712192708189
N         5.64476720143796   -0.26844118522964   -2.15839335114978
C         4.82396617979172   -1.37306523873193   -2.27005800766193
C         3.54218324867441   -1.34993742544311   -1.86035033463519
S         2.53893508263212   -2.77080836080772   -1.95074175770612
N         3.53955397952805   -4.03931483972436   -2.33128500605911
C         4.80461798853520   -3.87046860941027   -2.52667707988616
C         5.57999014519693   -2.60271678326307   -2.65087460936692
O         6.73135546008166   -2.52707073744335   -3.06232276492071
H         4.47787774605781    0.42599006433068    0.48183700939278
H         3.98177849051094   -1.26020503523285    0.75992429157320
H         3.63751575137042   -0.01680976816227    2.00349264246403
H         0.04860644383591   -2.84564601636225    0.97936780238176
H         1.25957788125994    3.55143301455241    0.53074626600953
H         1.92673814469142    0.03386971738292   -2.13770728860573
H         3.39558498369387    1.98447154112384   -1.61028763047383
H         5.69668141978178    1.74181748538718   -1.86059151473822
H         5.37191053780250   -4.81095395373106   -2.60684498218771
