26
 energy: -46.148374260866 gnorm: 0.219026448353 xtb: 6.4.1 (79825abcba525fcdf90b791dcacef51065a7a4e7)
C         3.99856446821494   -0.13007593201723    0.79336027620143
C         2.66892652137260    0.08230260961382    0.03655318442180
C         1.74193994188968   -1.04481424487158    0.46166600423581
C         0.75887259887421   -1.87130814611173    0.68643965831737
C         2.02485973718775    1.35405017352146    0.46641736839332
C         1.28354377460950    2.22382560674393    0.82788719520015
C         2.83910798965473   -0.02202626271894   -1.54207101773650
N         3.55177150311537    1.05306219744046   -2.25412676653061
C         4.90242274385565    0.89057855370946   -2.34161211368112
N         5.56121768581140   -0.20270342043513   -2.16882812670441
C         4.85353639414781   -1.38816908460402   -2.15346762686169
C         3.52779222544584   -1.33578829667359   -1.92758846131486
S         2.46216859920105   -2.67854062974674   -2.23583213528239
N         3.45698855335757   -3.89559004486183   -2.76901503665140
C         4.73994616861720   -3.82976117346375   -2.63955317915944
C         5.60673234389251   -2.67090944322746   -2.27960028650480
O         6.77091617409915   -2.85816487665068   -1.94753794615781
H         4.31922516514191   -1.17790336824204    0.73223466448957
H         3.80470749620055    0.18121551850704    1.82572987887886
H         4.76366501961982    0.47742725489991    0.29656965525205
H         0.23301562365496   -2.59085227143580    1.27159119576285
H         0.69353404764633    3.01459292755222    1.23854735376034
H         1.81569525765610   -0.07357053420334   -1.94110526807450
H         3.01266260923232    1.91259400002851   -2.30149343675550
H         5.46400187643671    1.72205937614547   -2.80190112806973
H         5.29955920076570   -4.74648632157329   -2.88288148779938
