26
 energy: -46.152346159295 gnorm: 0.222990427622 xtb: 6.4.1 (79825abcba525fcdf90b791dcacef51065a7a4e7)
C         3.76719801813565    0.11526507584623    0.73076912545087
C         2.49341631862801    0.12380717578191   -0.14284744755846
C         1.58206792523522   -1.01529714008076    0.28412197979420
C         1.00794057711007   -2.07957406513772    0.77169677010143
C         1.76615718212605    1.35856395128675    0.26140120280522
C         1.37014224514224    2.43482797422681    0.61003715196383
C         2.83309512463327   -0.00320177107791   -1.69216590174276
N         3.74101292578445    1.08466661001361   -2.09584340850741
C         5.07733787428402    0.83293142932654   -2.19164751601005
N         5.62676810613820   -0.32886620090371   -2.27815327859091
C         4.81096543417016   -1.44272075796644   -2.26505234829737
C         3.53285691415761   -1.35731635141143   -1.85212686636894
S         2.48930803315191   -2.75083711307684   -1.90367616691482
N         3.45776260634284   -4.06882914353975   -2.18678882137127
C         4.71940875176431   -3.95022969810133   -2.43429080970875
C         5.56216338536209   -2.72000988447910   -2.44635474050668
O         6.77726209046271   -2.78169903555065   -2.58912581275300
H         4.34140804885127    1.05033024181172    0.75169603203310
H         4.42178662382938   -0.64046437438094    0.28282197783041
H         3.41378741641382   -0.16036865634857    1.73095255496402
H         0.24149713259679   -2.76444532364555    1.05487062175727
H         0.98672790559265    3.37266740093254    0.94991485987167
H         1.86644262948245    0.09968257876171   -2.20622477742629
H         3.34695127082545    2.01438651008848   -2.20544833430710
H         5.67338938642617    1.74479086375616   -2.37006395587491
H         5.24785132350156   -4.90360168704215   -2.59110506587544
