26
 energy: -46.154041722389 gnorm: 0.216906847190 xtb: 6.4.1 (79825abcba525fcdf90b791dcacef51065a7a4e7)
C         3.83433404826184   -0.21759375605762    0.80654973690245
C         2.54873973364622   -0.00787919891117   -0.02355011578949
C         1.39183603855341   -0.95587076412677    0.24719567355218
C         0.41344465811217   -1.69773468501760    0.68585842007993
C         1.98507597053222    1.33957321547894    0.26559050919296
C         1.42410916309411    2.37426374321096    0.49241835900954
C         2.84532637025336   -0.07667683675751   -1.58534520897862
N         3.65497084812085    1.05092394603955   -2.07902545041260
C         5.00248274150581    0.94057220060787   -2.25323104330833
N         5.58853360235727   -0.19342096869617   -2.42566781475355
C         4.84947168928153   -1.35643133394290   -2.33865069806687
C         3.57174729998476   -1.38486031951186   -1.91677994696080
S         2.60375931812600   -2.80139739298420   -1.61682379006396
N         3.60865506076980   -4.03738129690125   -2.08339464669293
C         4.83867231350179   -3.90103657514856   -2.45155457805869
C         5.59536994459602   -2.62401808450831   -2.59457265859849
O         6.78073235197695   -2.76951330589922   -2.86733830471098
H         4.71381455796681    0.00383593331280    0.18850047685186
H         4.05474337542024   -1.24458450430416    1.11796524531544
H         3.81526660772336    0.40177841804044    1.71057099764179
H        -0.45041064805855   -2.31464900454923    0.58664972544518
H         1.00167433313999    3.34287848196284    0.65179374909429
H         1.83679267697226    0.04167996913561   -2.00737627906256
H         3.23307529868332    1.97180240416924   -2.00376632324741
H         5.55476380905338    1.89326281464779   -2.33045586590022
H         5.42259256396472   -4.79886453365077   -2.70787958578763
