26
 energy: -46.154763379523 gnorm: 0.217996684583 xtb: 6.4.1 (79825abcba525fcdf90b791dcacef51065a7a4e7)
C         3.62007676625083   -0.41293627180004    0.70547046356602
C         2.38941546238510   -0.05958777523353   -0.15848341246377
C         1.14727955521375   -0.86383504589491    0.18893873682450
C         0.23907042619625   -1.52210671199118    0.85367278707317
C         2.09013306434278    1.36829801196900    0.13903863538656
C         1.94475962014188    2.41253414974400    0.70926365346957
C         2.74863338391250   -0.13475293140998   -1.70677709663943
N         3.51905974790815    1.04097630432037   -2.14817471439976
C         4.86372149642265    0.92196807351261   -2.33800415609315
N         5.56608859036265   -0.15463575872440   -2.42007249425356
C         4.88156820391425   -1.34499885909093   -2.27569406784058
C         3.58160796228618   -1.40140687994247   -1.93176929716204
S         2.64381765773617   -2.86743826861301   -1.86210571583927
N         3.77281785429627   -4.08378949923372   -1.89385890953633
C         5.02324609830690   -3.86018232651316   -2.12516626495019
C         5.69540117243559   -2.57877070864218   -2.48574012769430
O         6.85162643022094   -2.47379010879740   -2.87660611021860
H         4.59692377518739   -0.13697596768354    0.28819622302453
H         3.61092907463765   -1.50456401682684    0.79785594603468
H         3.48187463073404    0.03309680411522    1.69703214302656
H        -0.53972562066492   -2.16571898423305    1.19413069434441
H         1.62076382037142    3.38440585996257    1.01349763268555
H         1.80575219413361   -0.23466368080929   -2.26377949339009
H         3.11945880017509    1.97375741914596   -2.10440950984882
H         5.43742445846835    1.83805269666093   -2.56217224883906
H         5.65119047114496   -4.75816767774835   -2.01530917263132
