26
 energy: -46.157734156646 gnorm: 0.216081635124 xtb: 6.4.1 (79825abcba525fcdf90b791dcacef51065a7a4e7)
C         3.77254056202784   -0.04899892974670    0.90979433329510
C         2.53275923259382    0.08105321526354   -0.00225138757591
C         1.59617342214197   -1.04003602014588    0.41772884603342
C         0.42846332472472   -1.56292761112299    0.66887480513370
C         1.81774702736220    1.37919055949706    0.14108080279429
C         1.39271164534418    2.48587495878172    0.31803751395113
C         2.87333556358607   -0.06778003912829   -1.54942851770842
N         3.77761079953902    1.03177333287760   -1.92889731015246
C         5.10701200148312    0.81829396640316   -2.14204609133802
N         5.68835952640249   -0.32398240331078   -2.26999260872088
C         4.87071231158740   -1.43483895200585   -2.20811887323596
C         3.55682666588487   -1.38849078930218   -1.92016210216205
S         2.57109163668640   -2.81204460661071   -1.73208583687208
N         3.52368309627471   -4.10147806274375   -2.16230775552462
C         4.74186883998047   -3.96248162870853   -2.56700213717856
C         5.54142462286734   -2.70465293104600   -2.61598390286703
O         6.70358732059416   -2.73102807390446   -3.00242433805453
H         4.62422125543053    0.27969296803644    0.30061160440205
H         3.94859313208022   -1.10903077890048    1.12335430485086
H         3.73974594951617    0.53009860109563    1.83974619109091
H        -0.28750591555856   -2.34604444454103    0.77273869254489
H         0.99142495760940    3.47624452607932    0.33229665467609
H         1.94715416381132   -0.04453797133946   -2.14180220869689
H         3.48186233452627    1.97218807791185   -1.68429584372245
H         5.73391920863634    1.72607241048647   -2.18107312214037
H         5.29916714434878   -4.87346105519940   -2.83588035166896
