26
 energy: -46.150955331722 gnorm: 0.219443842425 xtb: 6.4.1 (79825abcba525fcdf90b791dcacef51065a7a4e7)
C         3.49146082633183   -0.41327120935908    0.95367257265823
C         2.40181282884847    0.00991127471272   -0.05597218315184
C         1.22074740590715   -0.93647203569642    0.08495529369800
C         0.42462071762497   -1.66625330433637    0.81546085912635
C         2.01361355554280    1.42178003411807    0.21398164295453
C         1.66109782063048    2.56127938987663    0.33227361029865
C         2.84236657965938   -0.05747293712061   -1.58347747411041
N         3.74442569936356    1.06479733367881   -1.89577007565665
C         4.97250898609062    0.86683401248299   -2.45338586042036
N         5.62648983551295   -0.23309673849534   -2.60032787923925
C         4.85547746280147   -1.35242354236350   -2.35737719987259
C         3.57011602422524   -1.35312647790706   -1.95836814369761
S         2.65363745590577   -2.80751845512335   -1.67843472845892
N         3.69023027677148   -4.06328216982928   -2.00044846125682
C         4.89744463320068   -3.90163710249909   -2.42890899602760
C         5.62471163077697   -2.61006397208168   -2.59244267599600
O         6.83226616810349   -2.65493146874869   -2.79357184664962
H         3.60232502337733    0.31730080389239    1.76513768313826
H         4.49681083363066   -0.57817979320313    0.55075023529015
H         3.33402639810056   -1.38043754284340    1.44463446533045
H        -0.38019593404531   -2.30591418862108    1.09790686587053
H         1.38743437469540    3.58453234085935    0.47414653212087
H         1.91611697465260    0.02364177708104   -2.17062382680725
H         3.34697705290024    1.99945137314214   -1.88422345026814
H         5.57586365429161    1.78584006133033   -2.55332828424103
H         5.53995715907768   -4.78798615713511   -2.54858948699204
