26
 energy: -46.149055447370 gnorm: 0.218843242182 xtb: 6.4.1 (79825abcba525fcdf90b791dcacef51065a7a4e7)
C         3.65325152001424   -0.46292463217634    0.84124826885174
C         2.44833563844500   -0.00534482663921   -0.00998444455296
C         1.23556791393384   -0.86190602341415    0.31546108653762
C         0.37448538045651   -1.84096635399258    0.31165235040481
C         2.10640913185652    1.41575722234942    0.27374491666233
C         1.98238439056522    2.60761613533695    0.24529670338467
C         2.75601228066295   -0.16404274143879   -1.56306225490550
N         3.49810560925311    1.00240935328659   -2.07239012096921
C         4.85309819503065    0.94394722842384   -2.20983343318521
N         5.57226615700668   -0.12378801499634   -2.25307058313304
C         4.85475698758784   -1.30310728578721   -2.22542567866369
C         3.55964828726323   -1.42952747943648   -1.88180651441674
S         2.63227674565539   -2.90333683603887   -1.84412764104850
N         3.82676534159636   -4.03184780509826   -1.60999089231388
C         5.03872095898254   -3.82024646586273   -2.00173381323327
C         5.56773878778529   -2.56038459767412   -2.59898577753703
O         6.58880241129740   -2.50371655853494   -3.27342762587238
H         4.54041020486779    0.12328468224818    0.56956818504147
H         3.91560509626057   -1.52626365452082    0.81385102429224
H         3.40788166322231   -0.28535997696459    1.89457838014400
H        -0.61397327031036   -2.21469677742301    0.45288512207043
H         1.97103274558756    3.66052802298185    0.42781766662020
H         1.75084460599529   -0.15868284334305   -2.00900841654996
H         2.98312833607238    1.87120019193296   -2.18045402156689
H         5.44881943975420    1.87004920061202   -2.13205944868737
H         5.77040980581739   -4.64214587384447   -1.95845326982366
