26
 energy: -46.150566982408 gnorm: 0.226146223750 xtb: 6.4.1 (79825abcba525fcdf90b791dcacef51065a7a4e7)
C         3.78026652677706    0.12689837359615    0.84320112688594
C         2.52680761618314    0.16237618653017   -0.05867513464046
C         1.54951660258973   -0.89281954266728    0.43313955738319
C         0.89714866806982   -2.00847264628777    0.60568231427741
C         1.93694157127292    1.51755300280011    0.12160515467074
C         1.47802644463490    2.62484773969606    0.11781212270655
C         2.79361956177544   -0.12175474604771   -1.60139404845470
N         3.58494389720086    1.02142818264076   -2.08890453802011
C         4.92316955797278    0.76198756703690   -2.07641241014352
N         5.55758080077342   -0.35887552453571   -2.09426938751605
C         4.81029858355488   -1.51978971221196   -2.10927448038400
C         3.49140085300872   -1.46400387646571   -1.84705420214783
S         2.47171569442542   -2.87588546901436   -1.82745176787281
N         3.55600939563089   -4.03505608926826   -2.31303458444878
C         4.81986793513301   -3.96164852319592   -2.56670165548815
C         5.63497176734958   -2.71925128750460   -2.44069944687509
O         6.83111826735359   -2.62917338916949   -2.68924223796154
H         4.36151964354781    1.05767930046887    0.86033708573825
H         4.45312263398738   -0.69727439168832    0.58190856715656
H         3.35138640353731   -0.00144229456786    1.84361624800583
H         0.37148762351367   -2.82558264204144    1.04463943197608
H         1.20445461242322    3.64669731560464    0.26962815236775
H         1.81511116632749   -0.08356673073210   -2.10171571085575
H         3.10473956398544    1.90075513864718   -1.92197691934263
H         5.58126975087485    1.64434683430594   -1.99308340570918
H         5.30892557029824   -4.85523193741828   -2.98514128482754
