26
 energy: -46.150644998527 gnorm: 0.221875451727 xtb: 6.4.1 (79825abcba525fcdf90b791dcacef51065a7a4e7)
C         3.71177161160519   -0.49483783336024    0.95687296828572
C         2.52390862334241   -0.04522818771235    0.07787844343440
C         1.30169059606832   -0.94164036656557    0.19209633521538
C         0.26314334053354   -1.72308010064180    0.29605931389637
C         2.17577683018503    1.36268020396203    0.41484332884127
C         1.69336489086228    2.43429382574974    0.65072904472535
C         2.84672301401561   -0.08746309686559   -1.47965412902342
N         3.59438112435926    1.09863616155204   -1.93231710763566
C         4.84063601336780    0.95901404274099   -2.46679611457815
N         5.49617521550712   -0.13700871160233   -2.63452516027163
C         4.85814790356621   -1.33318451964382   -2.37287237384250
C         3.57802228543211   -1.34669228574104   -1.95759092649817
S         2.59454088154152   -2.77514236022191   -1.79682273335749
N         3.73930848103893   -3.97650875968704   -1.83405103582764
C         4.98354052420543   -3.83344043457655   -2.14788560603701
C         5.65830072580858   -2.57616029042744   -2.58120651409295
O         6.78703003185907   -2.64978462121489   -3.05152938315081
H         4.43899305548296   -1.02153740055105    0.32581156252762
H         3.33171976014000   -1.10521175030942    1.78347695947278
H         4.27619036258971    0.37148871594457    1.32039694058245
H        -0.33564163245009   -2.57586279644498    0.52164711317000
H         1.28691471961973    3.42090553479602    0.70956609143136
H         1.85564633730493   -0.07902867774309   -1.95605170626750
H         3.20174729341054    2.03283348815024   -1.86310042546667
H         5.29112267701777    1.93310723250184   -2.72525632560437
H         5.55878586592614   -4.77238710110078   -2.13264207826657
