26
 energy: -46.153174116053 gnorm: 0.223923086230 xtb: 6.4.1 (79825abcba525fcdf90b791dcacef51065a7a4e7)
C         3.71551087314452   -0.33145829232950    0.86157689121888
C         2.56527201813765    0.13168469944156   -0.05942683043359
C         1.40846129821138   -0.83758673132830    0.12145798977984
C         0.49638276763316   -1.61954221432542    0.62810891737791
C         2.00969406615416    1.47366637067020    0.26823988812970
C         1.42094549026505    2.45031437784797    0.63736439760754
C         2.87339332761599    0.03083075585088   -1.61724273773846
N         3.78957161246128    1.04296609015285   -2.17125293764551
C         5.07043931627089    0.78533694639217   -2.56024978686266
N         5.63646379835873   -0.37087939040544   -2.60396057377178
C         4.84900565436946   -1.45208332578518   -2.26149110264822
C         3.57796682634172   -1.31155337516240   -1.84187890770772
S         2.58637734174347   -2.71726100820370   -1.56932053693096
N         3.50143001623911   -3.98593159991591   -2.12458044118794
C         4.74441163541488   -3.95784815016984   -2.47283620435107
C         5.59370396004302   -2.73230894850085   -2.44879628142169
O         6.80925880701083   -2.74803420987354   -2.59990262838051
H         3.65136634965432    0.25418069641194    1.78754363954674
H         4.68264272318921   -0.21392231057990    0.36046695452727
H         3.57032289993455   -1.40212501534239    1.04551471043159
H        -0.09877100030336   -2.45810721078228    0.90966242082154
H         0.89536851806154    3.32442162684044    0.95638097255655
H         1.91193349052378    0.15603263799177   -2.13606663715976
H         3.42728460754523    1.98320404920083   -2.04327781634409
H         5.59249176327631    1.65613127018275   -2.99358100962620
H         5.23741433632151   -4.88589789579444   -2.80212698474795
