26
 energy: -46.150967061494 gnorm: 0.230726071818 xtb: 6.4.1 (79825abcba525fcdf90b791dcacef51065a7a4e7)
C         3.83528232821440   -0.23168486876727    0.86941346308747
C         2.58558420712821    0.03532285299264    0.00179592397092
C         1.38390409418865   -0.83979577293981    0.31889174818646
C         0.36715263676468   -1.65603901443518    0.31936960205261
C         2.02920572984763    1.38362668970514    0.30090612674608
C         1.47378243503049    2.30641698414619    0.82691198754762
C         2.79636793258946   -0.15393507439609   -1.56397938651891
N         3.59608692511113    1.01615235407821   -1.96656209649507
C         4.93887103849861    0.89126357603313   -2.16567769404515
N         5.59256672443772   -0.21594627854263   -2.24248167230625
C         4.87639476921725   -1.39352143331058   -2.16006752582142
C         3.55765598874449   -1.44208684714735   -1.89562058518092
S         2.57954035795643   -2.88201288658602   -1.83684539936867
N         3.63424382524485   -4.03830718312100   -2.38978673994204
C         4.90763756057866   -3.87101522548522   -2.52228525880340
C         5.69055516527836   -2.60242373591075   -2.48307605549419
O         6.83346018470736   -2.53162485205119   -2.91828822511763
H         4.71703906354950   -0.57578238834768    0.31389215889695
H         3.65218671416317   -0.95577746877806    1.67093438783633
H         4.08441413532970    0.76188847934836    1.25926631467740
H        -0.57781209129397   -2.14742723090443    0.36681344595840
H         1.05364283375400    3.27013602608997    1.01873102145150
H         1.83956021576350   -0.14921585255230   -2.10597153903793
H         3.18173910836906    1.91546776372526   -1.74023355677421
H         5.43977854682627    1.86924360990139   -2.27171628124035
H         5.45173839031192   -4.77424938033468   -2.83990572655167
