26
 energy: -46.151621937273 gnorm: 0.224774919149 xtb: 6.4.1 (79825abcba525fcdf90b791dcacef51065a7a4e7)
C         3.86949244220377   -0.22175636062838    0.77043681043747
C         2.52252776709306   -0.05041213843576    0.03414474179704
C         1.56984462113500   -1.14888239489851    0.47706157883480
C         0.65486975607313   -1.98092434944672    0.89005543824906
C         1.89146116137847    1.28850892682062    0.19536644498164
C         1.65229469463546    2.46113914263609    0.26212633413569
C         2.81178559338159   -0.02812729899930   -1.53037880575728
N         3.63798413528001    1.11495371578687   -1.95639480657417
C         4.96586265236234    0.92478765681370   -2.19906517506374
N         5.56877909510087   -0.21346049710729   -2.19539597342363
C         4.76736005661457   -1.33656866810141   -2.14311630979676
C         3.43468841448309   -1.36192626676446   -1.95682076437070
S         2.44340334265038   -2.77695287549736   -2.17728684962588
N         3.54261674515587   -3.98044276892977   -2.49113713130963
C         4.82334676926652   -3.84261514901189   -2.40277304471870
C         5.59404914437405   -2.57102788927900   -2.28917113798999
O         6.81548108435497   -2.61091443312378   -2.37382970037580
H         4.23879329009444   -1.20488487661968    0.45172508061379
H         3.62883202597996   -0.30918148849061    1.83566415745778
H         4.55237405120784    0.60619348958207    0.54814950021025
H         0.07354912214672   -2.77393253645219    1.30221554332642
H         1.25055447524285    3.44860050065202    0.33689977164919
H         1.83326186753806    0.09667253343761   -2.01635728815800
H         3.27756255109820    2.06444351325563   -1.97196160087329
H         5.57232203543333    1.80574523626398   -2.47241150572195
H         5.48981006084654   -4.71911750461562   -2.42095861776280
