26
 energy: -46.149464537439 gnorm: 0.220821479668 xtb: 6.4.1 (79825abcba525fcdf90b791dcacef51065a7a4e7)
C         3.70805181781873   -0.25321319732792    0.80544513134633
C         2.44884341511864    0.03376799685173   -0.04180612523565
C         1.38711230222252   -0.97571416092110    0.36327439937183
C         0.33783828558053   -1.73388582093832    0.51895524289036
C         1.95784323996070    1.43519125562215    0.06718379087101
C         1.58869040842444    2.53871103617627    0.35474141644939
C         2.86982599098783   -0.05545612738883   -1.57370474076123
N         3.80504551943514    1.05012841021991   -1.84532054519863
C         5.04307778184700    0.88160189209381   -2.39047036294976
N         5.55179223604855   -0.25427240426779   -2.72232838043987
C         4.86515531132055   -1.39023800633933   -2.34221066332584
C         3.59629555761987   -1.36635576890492   -1.89411769557723
S         2.67965160464184   -2.77549641845926   -1.43844435276719
N         3.56231775628176   -4.03938572816546   -2.05378515823430
C         4.70658176236927   -3.90385124569622   -2.63633502737808
C         5.56719031887407   -2.68776453498405   -2.57070175662949
O         6.77481158032285   -2.88493526210011   -2.62925587604632
H         3.79436012029230    0.46944518189227    1.62691801831627
H         4.62147689268648   -0.20904999713791    0.20214244345218
H         3.70275393592622   -1.26858375580141    1.21803991804607
H        -0.60283330016428   -2.14634073638544    0.80476904760088
H         1.40043400591414    3.56698342387521    0.57673607683201
H         1.99007299328314    0.11041544313267   -2.21228131976547
H         3.44221996188180    1.93943736320568   -1.51492059965428
H         5.55807621849633    1.83330102327316   -2.60874273920646
H         5.12938099663586   -4.79323804797648   -3.12927755442872
