26
 energy: -46.150073321544 gnorm: 0.213338904490 xtb: 6.4.1 (79825abcba525fcdf90b791dcacef51065a7a4e7)
C         3.95746332958625   -0.23697827489965    0.58356636210303
C         2.57712641231949   -0.03724718113569   -0.08019276791959
C         1.55747243864710   -1.01125733451094    0.48728182396421
C         1.01613781249886   -1.93777689385701    1.22792687198676
C         2.15705921436838    1.34794783431368    0.26869896630954
C         1.76053675791598    2.38206637908437    0.72705241442511
C         2.71087376400305   -0.11776165868402   -1.66371090585958
N         3.43449490365270    1.07760017586833   -2.13084086674656
C         4.79001300689729    0.98473633157374   -2.24156741232159
N         5.45194869179462   -0.12021696651668   -2.23450287687577
C         4.78294082175616   -1.32235597517850   -2.11759327586939
C         3.43937167771723   -1.39652049465345   -2.09143392161672
S         2.44046045809827   -2.75633560319936   -2.52344194274340
N         3.51455611275656   -4.02004321419074   -2.45619893076018
C         4.76914971367604   -3.89194485639261   -2.17932394206566
C         5.53397496878807   -2.61232139708321   -2.14153752751696
O         6.75800939730162   -2.65884495085767   -2.12639612420720
H         4.68318542028794    0.45827428544741    0.14259778545970
H         4.36163253816235   -1.24745562809969    0.45765902655561
H         3.79538370213669   -0.04456805566774    1.65031300527670
H         0.18619441374547   -2.51230824972706    1.57111676291725
H         1.44014462362320    3.35235301666025    1.04003632149800
H         1.67826187208243   -0.08617996048287   -2.04050532790942
H         2.99529706561127    1.99258281098997   -2.09097917776602
H         5.41810660335866    1.84474283339359   -2.53222993990272
H         5.34729907275296   -4.82872323080824   -2.21014602621625
