26
 energy: -46.152318039229 gnorm: 0.222910339812 xtb: 6.4.1 (79825abcba525fcdf90b791dcacef51065a7a4e7)
C         4.11045311852190   -0.16055191037222    0.69364726471199
C         2.71662776253040   -0.03423785244796    0.04012271768091
C         1.77991848333484   -1.13311823467441    0.51494382431670
C         0.69109683345102   -1.83592577541158    0.65835147100783
C         1.98533383050875    1.18310894043028    0.48758568475690
C         1.43193803745160    2.22375264037983    0.70560609481639
C         2.75428781568440   -0.04925806838108   -1.55055536461244
N         3.53160312188356    1.07560837840457   -2.09935794705056
C         4.85430393109959    0.89527076025653   -2.37549977381357
N         5.53316736366274   -0.19588072463711   -2.28795872591697
C         4.80814685656843   -1.35921370619194   -2.12249201297745
C         3.46747495337857   -1.32596241534273   -2.00910796333037
S         2.41238650992554   -2.69076282903508   -2.24923273998904
N         3.48354146543524   -3.88060177882864   -2.68749106786549
C         4.76647723468196   -3.77530320237054   -2.58718116097057
C         5.58504229357285   -2.63350492823578   -2.08711153028178
O         6.78689531153975   -2.73146685683682   -1.87122552258096
H         4.74320964033300   -0.96508492529111    0.29760715250302
H         3.98482946597622   -0.33512944119072    1.76789643176094
H         4.59760205294086    0.81848909006107    0.62013173371128
H         0.04290255890004   -2.63102434669095    0.94875477182021
H         0.94005884478682    3.09896790532508    1.07182912553474
H         1.73473108355046    0.01555436857944   -1.95744869424734
H         3.06778351422568    1.94426067237731   -2.34833884104024
H         5.50498744604776    1.74909620800650   -2.63277496723278
H         5.18639535845556   -4.75092514346972   -2.87802648688384
