26
 energy: -46.149679245205 gnorm: 0.221931525870 xtb: 6.4.1 (79825abcba525fcdf90b791dcacef51065a7a4e7)
C         3.58577579161493   -0.02531680536758    1.02830280555020
C         2.46426524748958    0.09728531707024   -0.02667658752040
C         1.57001104359222   -1.06671501813937    0.36807658878152
C         0.59802905840291   -1.77628635049572    0.86986968460872
C         1.81522778356279    1.43392783229152    0.06863488991350
C         1.38762153860994    2.55160753685560    0.00034079839383
C         2.92596026127736   -0.04041687606648   -1.54317797454993
N         3.88066376442208    1.05652168997100   -1.77981036027358
C         5.17311963342163    0.86731770479788   -2.16977583800658
N         5.65728522632826   -0.30088347595816   -2.41476611990003
C         4.86158761095943   -1.42903251804518   -2.39190468004164
C         3.58687561413215   -1.35691607603119   -1.96614501117692
S         2.61911078498226   -2.77136603955294   -1.65579964603883
N         3.46663727866339   -4.10516435048653   -2.16358004806738
C         4.70215541205685   -3.95546859710657   -2.50732440567801
C         5.52032045467672   -2.72735213705696   -2.72216766327460
O         6.69839388319556   -2.84579689748086   -3.03644116211689
H         4.27954225770188    0.81814750187122    0.91986842081979
H         4.09876907487160   -0.97477176796753    0.83950911945097
H         3.13531651341696   -0.08333502986240    2.02577973370479
H         0.05963800446754   -2.57393985715931    1.32873304522431
H         0.91184591454702    3.50693131324499    0.05566025915109
H         1.98493071128324   -0.02446559827652   -2.11192019383592
H         3.51093028350312    1.98172337282440   -1.58238715213816
H         5.90674001833065    1.68993097234164   -2.23065276029830
H         5.29640784203614   -4.80599935078871   -2.87640691925785
