26
 energy: -46.152883149212 gnorm: 0.222682450462 xtb: 6.4.1 (79825abcba525fcdf90b791dcacef51065a7a4e7)
C         3.93192133585635   -0.04361224257038    0.95519188400161
C         2.60303631295146   -0.00993424068503    0.16859854601784
C         1.49888225312243   -0.93223485454040    0.65913175153582
C         0.38065811821750   -1.59814450562130    0.73771857092844
C         1.97990925649011    1.33878541803005    0.26665514282814
C         1.51757462510960    2.44461587257903    0.27689290879747
C         2.75954509623666   -0.22746829899270   -1.39986712811714
N         3.52561816294933    0.86054026618631   -2.03239958168044
C         4.88566679773875    0.85507665516232   -2.12487260383395
N         5.59896647553294   -0.21745963619571   -2.12506427306469
C         4.86508246707193   -1.38525547617234   -2.06146606605837
C         3.54619162949730   -1.47732727226810   -1.80964772375117
S         2.58599032540498   -2.91544080047671   -2.01796149194034
N         3.62426586454227   -4.06740019177865   -2.60968227964489
C         4.88339615092105   -3.85457408349336   -2.80039154849690
C         5.61941331263551   -2.58713271456753   -2.52526829034170
O         6.83037720093390   -2.55845593298477   -2.70801974924630
H         4.32918479916288   -1.05340254485099    1.11953069379730
H         3.73108910825496    0.54401966023481    1.85775770064850
H         4.63598807744759    0.45650754027525    0.28035106907523
H        -0.49760747465174   -2.07908325104944    1.10380476157048
H         1.08755045913936    3.39598074627208    0.50503826838889
H         1.77999953857862   -0.21764314932568   -1.89951973911086
H         3.02316287067727    1.73775680699798   -1.93387675603507
H         5.37314818796959    1.80607834413781   -2.40155860100479
H         5.51295917535212   -4.63882669788410   -3.24912158405770
