26
 energy: -46.152379870409 gnorm: 0.219611833534 xtb: 6.4.1 (79825abcba525fcdf90b791dcacef51065a7a4e7)
C         3.73321617804497   -0.17971181432790    0.88559417630707
C         2.49848839177229   -0.00221958564373   -0.02530785751170
C         1.37796432779016   -1.00407099089153    0.20082713048779
C         0.23187968656024   -1.56636647410993    0.46606393059924
C         1.98560072934800    1.36111886428858    0.28323981116475
C         1.62719396535859    2.50463438366984    0.30845825072123
C         2.87703883511222   -0.06955271064706   -1.56935010998777
N         3.73806454407922    1.07814630538903   -1.90423752403908
C         4.97791967963700    0.89105923925259   -2.43909364446939
N         5.48922699109886   -0.27841168927203   -2.61239436145877
C         4.81459816495366   -1.44599493496837   -2.31574150204175
C         3.57965996674517   -1.41497542093717   -1.78158029399000
S         2.69074755061033   -2.87079344109437   -1.42947190133715
N         3.56561238095197   -4.05407332859940   -2.19733925061036
C         4.78191210519001   -3.91825365113222   -2.60872964682286
C         5.61468291173244   -2.68208186021445   -2.56189175330166
O         6.82729524581488   -2.69956842701384   -2.73486441347972
H         4.21588307853631    0.80585705280202    0.89932873027817
H         4.44488470204012   -0.89691289883235    0.46201371554397
H         3.50221853500201   -0.39106347458270    1.93593243736721
H        -0.53327519827627   -2.25106941538641    0.75310315388089
H         1.43992439789506    3.53726165063853    0.51014426887164
H         1.93952838076829   -0.02368510189634   -2.14226291346987
H         3.49683978310657    2.01050302794512   -1.58143963256900
H         5.50026196718292    1.81491179935801   -2.74282451054324
H         5.10188447208353   -4.89534633722298   -3.00327746019927
