26
 energy: -46.150537373972 gnorm: 0.220032801048 xtb: 6.4.1 (79825abcba525fcdf90b791dcacef51065a7a4e7)
C         3.86959240378598    0.33818699185642    0.77405625605041
C         2.54975842670203    0.13329974700885   -0.00173893611779
C         1.63659731750793   -0.99898567051195    0.43926438588959
C         0.95234516762858   -2.08492881347737    0.66853111665493
C         1.82100388049525    1.42167424020950    0.15936690956694
C         1.28211153409314    2.47774258501446    0.33553101591978
C         2.84394280124875   -0.04738750718434   -1.55502844629872
N         3.74026616641292    1.05877164090766   -1.93416462345079
C         5.05060039643383    0.77908191708381   -2.18538416544434
N         5.63093622511535   -0.37000609401650   -2.22940265464126
C         4.80925381990200   -1.47755819498839   -2.16199367132689
C         3.49002462386794   -1.39106745993829   -1.90996901830328
S         2.51034806903489   -2.83087122322982   -1.88257070223848
N         3.43469072775594   -4.02977623409912   -2.56328903699134
C         4.72525400996099   -4.00792261879803   -2.59558293582197
C         5.52543623281793   -2.77414864935449   -2.34793014867564
O         6.74705768316948   -2.85133653789296   -2.29958702495038
H         4.05549076838110    1.41936557628164    0.74248681808636
H         4.66914278705812   -0.28014800029694    0.35138509644465
H         3.71586733307811    0.00010159488677    1.80522392608815
H         0.17594951391861   -2.78813552406939    0.86697941994443
H         0.69566731365235    3.36782549268865    0.41235416783561
H         1.89235438447482    0.11270728967920   -2.08238781415495
H         3.27300749142616    1.96028405236268   -1.90923225561024
H         5.69160019076603    1.64744690972920   -2.41702820826273
H         5.29212214697215   -4.82138956807359   -3.07484533673196
