26
 energy: -46.153764986120 gnorm: 0.219069243806 xtb: 6.4.1 (79825abcba525fcdf90b791dcacef51065a7a4e7)
C         3.71547649543805   -0.10878629938411    0.89968980086904
C         2.46678946623485    0.03950896680275    0.00270156010130
C         1.49134862242331   -1.07809759224449    0.33419536721787
C         0.61493614865878   -1.95714008624925    0.73322195249348
C         1.91116113823143    1.40152777190154    0.23319893395808
C         1.49791742569808    2.50045404626382    0.47467309948869
C         2.85927053142994   -0.04725887606975   -1.53688623708306
N         3.72726556022905    1.10059259543103   -1.85271768043846
C         4.96207898801176    0.86046306845556   -2.37796714838510
N         5.54788226872871   -0.28185797448907   -2.48317033701060
C         4.80744338728058   -1.41724001697776   -2.22042428452142
C         3.50699398249145   -1.39461547060105   -1.87447309849117
S         2.52945878167680   -2.83613433086582   -1.87454230199034
N         3.53923320031012   -3.95834772080211   -2.56458053247030
C         4.81628457796311   -3.84652281477817   -2.71855790339600
C         5.63928818887981   -2.64294021718141   -2.40570699286478
O         6.85858520768063   -2.60504815150262   -2.29375625613414
H         4.28372114320520   -1.00954957246580    0.63468884805669
H         3.44015406710927   -0.25616927776918    1.94980679619934
H         4.48285160513378    0.67369726376208    0.88995305948487
H         0.10829150163469   -2.87678266105118    0.91826344441122
H         1.24903888173609    3.46520796464756    0.86116442773757
H         1.88081581083837    0.05088744854844   -2.02907768463637
H         3.36976743522465    2.05128143411972   -1.86063865112287
H         5.51755216208739    1.75301865021043   -2.71470375821372
H         5.30151009614888   -4.70562965011279   -3.20769188749690
