26
 energy: -46.150432305555 gnorm: 0.230014768428 xtb: 6.4.1 (79825abcba525fcdf90b791dcacef51065a7a4e7)
C         3.86346526774083   -0.21870877256811    0.96475683937387
C         2.60940615656268    0.05162996177179    0.10449442830015
C         1.52507544983837   -0.90781809002106    0.56720794788765
C         0.37357496247994   -1.46288925871241    0.82407250086038
C         1.93547196740587    1.36142250673626    0.32175771667087
C         1.16620898193565    2.27795860983908    0.25164958998369
C         2.88037197021391   -0.17145743152004   -1.44750756394259
N         3.68647838095523    0.95880114220406   -1.94089979236466
C         5.04454663377116    0.87626791691553   -2.02547096231163
N         5.67673832405443   -0.24554427655938   -2.05711942107670
C         4.98431792246739   -1.44008205171673   -2.05378976511891
C         3.66191134216731   -1.44082195478639   -1.80358379365536
S         2.58040467457458   -2.80140553104375   -1.91631072431881
N         3.59490076454603   -4.05234282141877   -2.31770031957136
C         4.81441602369530   -3.83252490530325   -2.68038016617127
C         5.63390184974381   -2.58868178581515   -2.75192713585969
O         6.66750584626801   -2.58863482076469   -3.40943512742804
H         4.72286302283948    0.39175148013109    0.65934606918139
H         4.07377756898193   -1.28470257282895    0.82441495071584
H         3.58424657700578   -0.07293681753632    2.01453174818129
H        -0.48818595532095   -2.01579622020871    1.12128226169796
H         0.75636605276405    3.25474238708757    0.39303006607937
H         1.94252933334370   -0.31271781666367   -2.00406435447598
H         3.27135968721390    1.88346530021127   -2.00685118836770
H         5.61375641562395    1.81731307203956   -2.12050619545752
H         5.39798290151995   -4.74606173131030   -2.87444350419060
