26
 energy: -46.146891782199 gnorm: 0.220021801130 xtb: 6.4.1 (79825abcba525fcdf90b791dcacef51065a7a4e7)
C         3.80268819035004   -0.42055401639075    0.71172111821654
C         2.53435589406989   -0.01310540181381   -0.07001893851299
C         1.32947876414838   -0.91549220437173    0.14066234831797
C         0.54609238446679   -1.88025792719887    0.53508553778914
C         2.13447466535373    1.38347683271350    0.25647792888275
C         1.55055129090123    2.40428357936870    0.48822389860244
C         2.76634086944624   -0.05550925267241   -1.64364073188814
N         3.56848160460787    1.10072011501893   -2.08002562723040
C         4.90660621159471    0.96801609463073   -2.30391304284143
N         5.53580344219565   -0.14859752779414   -2.43203571536343
C         4.85867403649116   -1.32540830742021   -2.18105812466740
C         3.54062969216790   -1.35104095228776   -1.91001417855294
S         2.56820990003229   -2.79070242554181   -1.78621475668298
N         3.57456249676569   -3.97128969735648   -2.37666219059688
C         4.85813175057215   -3.83383277541113   -2.40175442485437
C         5.65674765337300   -2.58603792217577   -2.23133630954054
O         6.87935149390908   -2.60083651953161   -2.15600478942686
H         3.84343428755382   -1.51631292206604    0.75813382601528
H         3.85284342072006    0.01353486701583    1.71637089917690
H         4.66051408873408   -0.02535583413992    0.15566984063194
H        -0.24157475342133   -2.59722325332852    0.48804479651430
H         1.02949963915600    3.32801274626533    0.61973744161023
H         1.87575443479932   -0.22218379678063   -2.26680537471309
H         3.09545131560617    1.94701624089850   -1.77720201693778
H         5.54851017675369    1.86474105174580   -2.25450548399655
H         5.46229294622450   -4.64479806196738   -2.83774176827300
