26
 energy: -46.149086609717 gnorm: 0.228393592469 xtb: 6.4.1 (79825abcba525fcdf90b791dcacef51065a7a4e7)
C         3.41858368371174   -0.57513596578685    0.93344405885853
C         2.39726553362796    0.05841735869278   -0.03677144471892
C         1.09169745275606   -0.65970731477365    0.26357232339548
C         0.27111334003139   -1.64211438457151    0.51167479049420
C         2.20414052503973    1.50725943524226    0.24696521423569
C         2.00385119876678    2.68679321897419    0.17414113306037
C         2.78633856949297   -0.17971838118899   -1.56117761611865
N         3.53015940922494    0.99443607446291   -2.04986949201798
C         4.87203093922660    0.93417888201331   -2.28238457506299
N         5.55769268642405   -0.15599219480064   -2.25945971474067
C         4.89488249989193   -1.36706157630023   -2.24019290790462
C         3.61574220128559   -1.44054552514347   -1.82816991096587
S         2.71300925381644   -2.91999455735575   -1.65538250636243
N         3.78157855680231   -4.14347520952742   -1.99657858778687
C         4.99181090310325   -3.84213073807771   -2.33064928785628
C         5.70070864564548   -2.56351226187667   -2.62462288454448
O         6.85874882456264   -2.44582989470775   -3.00639217979085
H         4.38539494710141   -0.57947274912099    0.41406063945414
H         3.08461527761040   -1.59993546001389    1.12971171193009
H         3.51910954609253   -0.07135472779118    1.90160670586409
H        -0.51333920229400   -2.33746672947518    0.70607374599994
H         1.83386010157203    3.74153600270785    0.20034977287835
H         1.85691235534839   -0.28330947596849   -2.13970554501899
H         2.99867720911280    1.85816330365904   -2.10625092787732
H         5.30377898733547    1.95013001735365   -2.28824722017727
H         5.62247633720390   -4.74143779321118   -2.40982215312636
