26
 energy: -46.151699861280 gnorm: 0.211288994377 xtb: 6.4.1 (79825abcba525fcdf90b791dcacef51065a7a4e7)
C         3.71627338802395   -0.46339054796691    0.87866634556735
C         2.56922510778000    0.02832575188455   -0.03144026135992
C         1.38047436325132   -0.91465045694771    0.05847642375305
C         0.62868184276025   -1.77203140763590    0.69072851392172
C         2.12538261938889    1.40906127291691    0.30548765433276
C         1.60394905205441    2.46841773254079    0.51186122496423
C         2.88395125164024    0.03569200308489   -1.59118186148374
N         3.80452810067812    1.08905287336150   -2.05345561761966
C         5.03405444695692    0.89055149743352   -2.60768983135312
N         5.54616366257056   -0.28607986922587   -2.71910500028334
C         4.79611388184284   -1.37881577536029   -2.33215387493773
C         3.49596479876770   -1.31134489953636   -1.99094601806210
S         2.49826361079309   -2.71845966305736   -1.74975710515570
N         3.52650139336317   -4.00948251196634   -1.92624249934020
C         4.79984819724513   -3.90834281590955   -2.11447835986602
C         5.56179771021679   -2.65858211749839   -2.39970254756265
O         6.75250382727034   -2.70844092494835   -2.68322862823742
H         3.63641237939654    0.07209009020619    1.83333103529665
H         4.64230741924762   -0.13465486422605    0.39424533390260
H         3.75009108272598   -1.53191129861732    1.12024379908578
H        -0.24293187341803   -2.38195024865263    0.76115705003252
H         1.11617815522982    3.39582680699555    0.72176161876594
H         1.89743030294802    0.23405633897431   -2.03467569382445
H         3.37176082718389    1.99772137261777   -1.91666756812149
H         5.66468024509965    1.72520444517879   -2.96019942862077
H         5.33119645778480   -4.87284247084448   -2.12751110809859
