26
 energy: -46.150159474158 gnorm: 0.235187756357 xtb: 6.4.1 (79825abcba525fcdf90b791dcacef51065a7a4e7)
C         3.77580353497796   -0.19172620838855    0.78467825634595
C         2.50617116096754    0.04023258357105   -0.06386605837733
C         1.32312583970403   -0.84536321801109    0.29186034955840
C         0.50349178351782   -1.77827922369466    0.68923234648535
C         2.07302520872391    1.42761067166979    0.25941981438462
C         1.78121089592169    2.56760317219878    0.48741239286539
C         2.79376668738938   -0.10571012902999   -1.62203491307470
N         3.63709073308087    1.04371259511630   -1.99400243310074
C         4.92686856372402    0.86570058458554   -2.39785670048091
N         5.57417367057892   -0.24608684970708   -2.46153840720190
C         4.81415484443976   -1.38636252241190   -2.29265865520171
C         3.51327488623117   -1.41880058668454   -1.94911557921066
S         2.52529883958571   -2.84615551672747   -1.80729551951518
N         3.57883943815742   -4.07866939607425   -2.16243179392592
C         4.85380671712994   -3.90017083549659   -2.26077182757405
C         5.62680423563543   -2.63337770543079   -2.40750867664748
O         6.81035805018138   -2.71448764550240   -2.71291911827456
H         4.45017984921738    0.60553311059873    0.44689706932646
H         4.20485351313646   -1.17553071217069    0.56487219639790
H         3.56758880758031   -0.19361190196053    1.86072796132172
H        -0.15295987687251   -2.56545260574989    0.98266190980416
H         1.47957728511297    3.57655151526325    0.66936461944812
H         1.80609763615749   -0.07738034896055   -2.10470046259015
H         3.27685504206049    1.98059181298513   -1.83855308317361
H         5.38777167856057    1.86829680413734   -2.36676651884932
H         5.31690821480230   -4.85662204304883   -2.54973290291919
