26
 energy: -46.154074715383 gnorm: 0.222003694134 xtb: 6.4.1 (79825abcba525fcdf90b791dcacef51065a7a4e7)
C         3.71173269381935   -0.11173992653857    0.92296468135477
C         2.51126700272329    0.03388160053203   -0.03801149239723
C         1.46251392669510   -1.03385461060122    0.22745756762575
C         0.42781508988444   -1.69100010986472    0.67197403235131
C         1.85030525298837    1.34388390025375    0.21491278519156
C         1.12421594873034    2.25009552550303    0.51205573966658
C         2.93028171105953   -0.04091341066080   -1.57122153659205
N         3.83581295059176    1.09587804678296   -1.81297811440235
C         5.09380105892505    0.88270684633067   -2.29291285461613
N         5.63776294351969   -0.26823755599691   -2.48928751647443
C         4.95253836237055   -1.44696502793502   -2.27146551962477
C         3.66487717873440   -1.34695874354743   -1.89292863846051
S         2.64170769302469   -2.73661314768902   -1.65726669090965
N         3.52166333084470   -3.96990158645209   -2.33538005377357
C         4.70164196858457   -3.80897714235066   -2.83420647563767
C         5.67909861614334   -2.72662445460497   -2.52289816610336
O         6.88896031665954   -2.85363356526012   -2.66697224600378
H         4.35006870231448   -0.93403627473948    0.57531856757834
H         3.32019410063669   -0.30917059835688    1.92695101210876
H         4.18179955306890    0.87761099318003    0.96119825592715
H        -0.22376358650690   -2.47204751275356    0.99147648162129
H         0.59686525587222    3.13945270980342    0.78226169710096
H         2.03546862540703    0.02022099921822   -2.20748476350592
H         3.42158989142968    2.01407307927716   -1.68254014759707
H         5.75120227340471    1.74773492687048   -2.48822675511752
H         5.08284642286863   -4.71461130641180   -3.33146932126617
