26
 energy: -46.154950401358 gnorm: 0.225589627425 xtb: 6.4.1 (79825abcba525fcdf90b791dcacef51065a7a4e7)
C         3.98168321371752    0.01198798132295    0.65582409392192
C         2.63403677918291    0.05670056914034   -0.09760046280188
C         1.75117865877314   -1.07479543988315    0.40309479084729
C         0.97828380399533   -2.05040685747575    0.79149234061525
C         1.94973826260643    1.31082380156124    0.32175328864886
C         1.36491135223239    2.33860280858663    0.51762798369159
C         2.80284104708518    0.00934881064354   -1.67910719915315
N         3.64159259489566    1.14124498348026   -2.11042468075930
C         4.96169703511351    0.90123146565155   -2.35132128556880
N         5.51396749956968   -0.26123123363910   -2.29832727808384
C         4.75925513616971   -1.40998803844983   -2.16738967152168
C         3.42121329734820   -1.34650554213775   -2.03709476212647
S         2.41268978729152   -2.76516562932925   -1.97516263467655
N         3.42398151474641   -4.04524376784248   -2.28151052195894
C         4.69940942290680   -3.91594754549581   -2.43526420442250
C         5.52528223056677   -2.67641797151590   -2.36231054885121
O         6.74539355390410   -2.67503293520475   -2.25285537747143
H         4.69429296618040    0.73499858068961    0.23875698547923
H         4.43839442628643   -0.98068534430333    0.57654973610575
H         3.85510268972453    0.12858146720506    1.73823955250649
H         0.29517212342386   -2.83477595696150    1.02557601371215
H         0.88340016963888    3.24514896550347    0.81492791127372
H         1.84363562930483    0.13103152610142   -2.20291732273098
H         3.30912649543691    2.09678770873262   -2.02052856076775
H         5.65596887103396    1.75934071091021   -2.36657248874582
H         5.24665920744455   -4.86916369992089   -2.50350676462405
