26
 energy: -46.147261701337 gnorm: 0.225011252624 xtb: 6.4.1 (79825abcba525fcdf90b791dcacef51065a7a4e7)
C         3.80486169443306   -0.25400276656853    0.89717581988891
C         2.52890459389358   -0.05693111259369    0.04929910956613
C         1.37511485091150   -1.03517667034283    0.19837046580334
C         0.32283653026920   -1.80075865885876    0.27980328060781
C         1.90933995602991    1.21574195121700    0.51124071585092
C         1.24984357223096    2.19981016955349    0.69397922609906
C         2.83511975301720   -0.03678100611682   -1.51202304521076
N         3.75584187342503    1.04098717198348   -1.91378715920305
C         5.09682043527934    0.91513917221977   -2.12414914997065
N         5.71384246996442   -0.20237203798630   -2.29614642254435
C         4.88886157840922   -1.30794386495898   -2.23702741862695
C         3.57378409892257   -1.30592870559621   -1.95079343097625
S         2.65389695341589   -2.77390753904377   -1.77080042745175
N         3.61695824344070   -4.05031701961218   -2.21627973461113
C         4.85262111331207   -3.87225115958607   -2.54567899882973
C         5.57017550897207   -2.56941181234374   -2.65313601834360
O         6.75619258467990   -2.52194033684049   -2.95606166562470
H         3.83393293645140   -1.19960122939321    1.45350339001427
H         3.95585545598188    0.64350723581985    1.50705004017679
H         4.67750008210454   -0.27816995375862    0.23448578381214
H        -0.64316755286543   -2.25003601373980    0.32051675617779
H         0.74802711521326    3.14195999594391    0.74497089437311
H         1.84526351495874    0.13662640223624   -1.95853536814365
H         3.36219768559154    1.97730562101274   -1.90840788185383
H         5.72349323371138    1.82210303573386   -2.18155306377347
H         5.43213210942968   -4.77241751721105   -2.80380288466383
