26
 energy: -46.150922473428 gnorm: 0.229680551499 xtb: 6.4.1 (79825abcba525fcdf90b791dcacef51065a7a4e7)
C         3.79957449459465   -0.34267246160094    0.84554204062053
C         2.56242085305261    0.05170652917667    0.00905249086709
C         1.37680108261233   -0.82603127314093    0.37552151042727
C         0.37193570546472   -1.64981069663295    0.48354834760596
C         2.13120614070673    1.46545659380450    0.18880718263487
C         1.69291548618924    2.55584091910265    0.42477843408175
C         2.76581347414481   -0.14165422111120   -1.55719899070134
N         3.50343792912902    0.96563843124046   -2.19008209903336
C         4.86546916793452    0.90964293141175   -2.18309581459881
N         5.52568930028907   -0.19473644880788   -2.12321160293434
C         4.88120810002390   -1.41324666108691   -2.20229664252204
C         3.58147615244223   -1.40500794526422   -1.85302348835649
S         2.59403118602522   -2.83445435000597   -1.72978743962672
N         3.61583171130003   -4.04760928514376   -2.21901010367934
C         4.84161509319927   -3.91355799913538   -2.60184088496542
C         5.64654268766870   -2.66380792890876   -2.48335873874157
O         6.82946652412757   -2.60518678247949   -2.79626247409356
H         3.98762559529496    0.40691092042456    1.62481317228614
H         4.68270935657453   -0.47191550206796    0.21021618828767
H         3.60063576894068   -1.26294131295979    1.40658439040064
H        -0.34731626635892   -2.36814935216636    0.80501032242536
H         1.57156131263309    3.61538206138201    0.49342199366946
H         1.80439190999152   -0.22609121465566   -2.08426420115820
H         3.04951031756566    1.86904514578150   -2.09270162147490
H         5.37359326853662    1.88848490084729   -2.13539095429608
H         5.41851759159777   -4.79098524424342   -2.93360185921940
