26
 energy: -46.152221615034 gnorm: 0.214787577495 xtb: 6.4.1 (79825abcba525fcdf90b791dcacef51065a7a4e7)
C         3.71024451562111   -0.35862458965537    0.96410802565066
C         2.51141163493161   -0.05078012980525    0.04007868000606
C         1.35114421439614   -0.97609649449918    0.36869183270032
C         0.09463329470792   -1.31944807681070    0.31101350011878
C         1.97682619110496    1.28320657076066    0.42949496054283
C         1.43340082265842    2.25924394201275    0.86395904975513
C         2.89203896354082   -0.13876826016820   -1.50241332375412
N         3.69425850790397    1.05572236200793   -1.81921585714150
C         4.90980992277802    0.93709032597917   -2.42475247587480
N         5.52538398981380   -0.16948233499325   -2.66075262859940
C         4.94052056133534   -1.37965520499823   -2.34485074965335
C         3.66413170032685   -1.39566287498571   -1.91830886598504
S         2.67447716484736   -2.82013510688669   -1.76014922847975
N         3.65315599871563   -4.03615012667566   -2.32464479298280
C         4.90378598924439   -3.82698549774685   -2.56805564695083
C         5.74840702181459   -2.60004453625784   -2.63913933209642
O         6.94822566664921   -2.69727675995094   -2.86637291563474
H         4.53134400007098    0.30797373026206    0.67094547277476
H         4.00046687581791   -1.41453674818573    0.99712902815274
H         3.34671939823252   -0.18906563302461    1.98407819780942
H        -0.73158382650620   -1.92570092852650    0.60511278325319
H         1.11852530837122    3.26510291154103    1.04050185087912
H         1.93146032761151   -0.05009194843892   -2.03031858885288
H         3.29133306338946    1.92263670399435   -1.47601397169512
H         5.40817712971950    1.88895785046939   -2.67808190813819
H         5.46996901541011   -4.75531102299260   -2.74243716883009
