26
 energy: -46.151029498852 gnorm: 0.220208478507 xtb: 6.4.1 (79825abcba525fcdf90b791dcacef51065a7a4e7)
C         3.75759111818577   -0.23093233644665    0.77687502507380
C         2.50742025224484    0.09746182237696   -0.06871871918873
C         1.44528601508588   -0.94666394312095    0.23474413359825
C         0.91107348161845   -1.85766014629903    0.99942685922263
C         1.82523643590317    1.40071680747052    0.16171307293662
C         1.36263029090609    2.49293250827910    0.33428052377591
C         2.87212119246980   -0.01539756215347   -1.61343766700489
N         3.72399891576134    1.08780921206131   -2.09089660460256
C         5.02815563362040    0.83182190497980   -2.39414427905427
N         5.62424899442124   -0.30425746671962   -2.50871709543428
C         4.79688822081274   -1.39173642784192   -2.31062299974648
C         3.49830948578338   -1.37124844883149   -1.95758438119377
S         2.52130293827743   -2.80107121644661   -1.77152856966303
N         3.49963551557582   -4.01304962556487   -2.34523035059420
C         4.77968384817231   -3.89521261942476   -2.46632852464912
C         5.59641770149130   -2.64926596598313   -2.40011330233842
O         6.81312146381438   -2.64176493772455   -2.25788219596283
H         4.46974406752549    0.60370229363766    0.74994601773038
H         4.33086570485207   -1.09444921480928    0.42195991422380
H         3.47956570685046   -0.51329880422122    1.79874142789473
H         0.14355723005946   -2.53085219148736    1.30667742563183
H         0.82208257996444    3.39667382493308    0.51628604663953
H         1.94086879776369    0.01391703504756   -2.19753389370136
H         3.34936979900038    2.01702109022712   -1.92387794350893
H         5.56563102416914    1.76213957693290   -2.64757414064274
H         5.38620969390504   -4.79516239318629   -2.65335049352568
