26
 energy: -46.149798647322 gnorm: 0.230018718382 xtb: 6.4.1 (79825abcba525fcdf90b791dcacef51065a7a4e7)
C         4.02192663754097   -0.04819519670975    0.71031044888858
C         2.70639920260263    0.07038030543682   -0.09039306924748
C         1.67397131346814   -0.96294874229251    0.33001291415102
C         0.69998918261271   -1.80441680999944    0.53816448879524
C         1.96709971508926    1.31097844791933    0.27195989218788
C         1.53883983391854    2.41870827492494    0.43396985454528
C         2.81152441727678    0.00416874454268   -1.67673016448082
N         3.64932019486743    1.05437425370854   -2.28162231419614
C         4.99735798767678    0.85400063392437   -2.25067196479370
N         5.54166669701509   -0.30835997235859   -2.14215279778282
C         4.78936864462157   -1.46338689451686   -2.06254088730412
C         3.45138177108264   -1.35912851399714   -1.96113046418084
S         2.41194099544028   -2.75666506771002   -1.95864741060343
N         3.43571267368561   -4.06144923687083   -2.02639583736179
C         4.69911100105555   -3.97332929989298   -2.27765984119931
C         5.53070256420535   -2.73583394372570   -2.30736522624339
O         6.74775142735518   -2.73113530155888   -2.44673516350109
H         4.02670381150537    0.71926348396502    1.49483980826187
H         4.82245614846385    0.23164065262991    0.01668642099966
H         4.17958988013034   -1.06070731231164    1.09915670955500
H         0.00344606780348   -2.56036574057274    0.82107884915699
H         0.97999406904902    3.32340293768062    0.54020164062001
H         1.83463837100920    0.15239709075942   -2.15941098761716
H         3.24228804098045    1.98423613234077   -2.24476260313299
H         5.56099949062549    1.77309732367727   -2.48766772294276
H         5.22849399797858   -4.93898123659721   -2.27214722329068
