26
 energy: -46.147204347218 gnorm: 0.220561340651 xtb: 6.4.1 (79825abcba525fcdf90b791dcacef51065a7a4e7)
C         3.73947717977269   -0.18623012511947    0.76734051582090
C         2.45612965097307    0.01001579743106   -0.06950198094215
C         1.29778084302987   -0.88609608013855    0.33747343288659
C         0.52383413498764   -1.80194844730136    0.84958446322590
C         2.01194793595973    1.42641397095675    0.04654096963802
C         1.98543608692601    2.62416086257723    0.00887629473335
C         2.71204503744365   -0.20579896220855   -1.62508289162984
N         3.47289895922458    0.89549960396648   -2.24068882873092
C         4.79483591807117    0.89950643342454   -1.90785249015093
N         5.47863193540690   -0.18786246818314   -1.81202743333761
C         4.85198222596743   -1.39437451577773   -2.05289341441999
C         3.53116816322477   -1.48761379429228   -1.81181376839900
S         2.57658623168636   -2.94407563523273   -1.77950361065437
N         3.67756122443399   -4.05507222037249   -2.33511199802408
C         4.88392181910327   -3.79321708310469   -2.71352983134868
C         5.68586353000846   -2.55916342274856   -2.47306622385426
O         6.89218977536045   -2.53038759918000   -2.68426026944963
H         4.37887666069186    0.70299582148115    0.69700217291498
H         4.33779418668937   -1.07644486372790    0.54417159918749
H         3.39813188011348   -0.23792737229615    1.80755716720369
H        -0.35968157076201   -2.21801428110179    1.27732369506287
H         1.90118275575181    3.68127101195084    0.14110988264219
H         1.70153869329109   -0.37622651936481   -2.02394395615545
H         2.95100446012845    1.73606244167227   -2.47037812782720
H         5.36313119475053    1.84473675508707   -1.95451701214822
H         5.54155153073507   -4.62592762423224   -3.00827841682536
