26
 energy: -46.150969381368 gnorm: 0.226241661206 xtb: 6.4.1 (79825abcba525fcdf90b791dcacef51065a7a4e7)
C         3.76608561693567    0.13856636214292    1.02179769878851
C         2.53625088166472    0.08920262752173    0.08859439379254
C         1.64165901494657   -1.07901294156831    0.46990156625744
C         1.00650558338015   -2.13963985672405    0.88425334541164
C         1.84508676435087    1.40569832393609    0.16655803871332
C         1.31554788236681    2.48024659965514    0.12589282481297
C         2.84628371353367   -0.10310574113323   -1.46021086778839
N         3.76721482512092    0.95143776057080   -1.91907006893592
C         5.12061931493173    0.78851530217678   -1.92719138213910
N         5.68014033620609   -0.36893864914173   -1.84739702786788
C         4.82564348915540   -1.42292092628422   -2.10300237466918
C         3.49710334229285   -1.42316052975261   -1.88772637528990
S         2.41826284868374   -2.72097036669547   -2.31824293269772
N         3.43594268400905   -4.03225174835656   -2.31286517795239
C         4.70572542960605   -3.88941460991713   -2.49813090513217
C         5.51768633184295   -2.64380020273786   -2.61208677216110
O         6.66252901656952   -2.62190870051799   -3.04741421302022
H         4.33484857138066   -0.79832197207189    1.07881437957522
H         3.47667494400070    0.39475941661297    2.04692035589583
H         4.47463694918665    0.87860499656524    0.63251923713627
H         0.59292283093496   -3.08725276214536    1.14435082180126
H         0.82606307665677    3.39864512361561    0.36882279441200
H         1.90117174501965    0.06583061723260   -1.99638493439990
H         3.39494144479310    1.88949245814270   -2.03371228227952
H         5.71225279046697    1.71814226735630   -1.99322919957984
H         5.34790516090450   -4.75884318734834   -2.28727656119587
