26
 energy: -46.148124323741 gnorm: 0.221880208965 xtb: 6.4.1 (79825abcba525fcdf90b791dcacef51065a7a4e7)
C         3.83258384669223    0.07524115616923    0.86913476962454
C         2.53584972401279    0.03201466631134    0.03103525624323
C         1.60044623617955   -1.11853427625144    0.36521320569230
C         0.54573194981943   -1.82853807159073    0.65419273006154
C         1.72422871802659    1.23285796480832    0.37190746918706
C         1.33919988943033    2.36778178466007    0.35141722318442
C         2.85070522647679   -0.03653105575160   -1.52719070511085
N         3.75128719385750    1.05872574107755   -1.92730638631360
C         5.08513737381576    0.87240832794884   -2.13812128075912
N         5.61373859823319   -0.28139186200126   -2.35824949414115
C         4.84109207209429   -1.41844505328816   -2.22977773318481
C         3.52287073211392   -1.34085043563257   -1.96971172588540
S         2.57771080395015   -2.80081964501045   -1.87636116037854
N         3.46181819725046   -4.04326204117870   -2.53199142060595
C         4.72836939618166   -3.87289086430989   -2.71609949672581
C         5.59428769715373   -2.68873121107509   -2.44819444633286
O         6.80708293630988   -2.80085921629319   -2.57937757273600
H         4.59678407877957   -0.63403281786615    0.52645358154466
H         3.47128454209085   -0.12039148578011    1.88474324532807
H         4.27107483184104    1.07705434437873    0.79608758245564
H        -0.00644822682670   -2.63567997406310    1.07879917916892
H         0.86135077117990    3.30443253502327    0.54223600696431
H         1.93159135019030    0.23248216357882   -2.06767228330331
H         3.43090914668653    1.97287289374993   -1.62174163474908
H         5.77036434627275    1.73349161928397   -2.05096038885090
H         5.34805009829084   -4.74102888307623   -2.99012982777871
