26
 energy: -46.149471333730 gnorm: 0.222473024026 xtb: 6.4.1 (79825abcba525fcdf90b791dcacef51065a7a4e7)
C         3.63973223527017   -0.60037621558123    0.87822535083622
C         2.46199389612223   -0.13393526808134   -0.00560944390899
C         1.15042262806892   -0.85915998031134    0.24786120078206
C         0.06545957731758   -1.45377644734500    0.65935021331667
C         2.23497961757718    1.28460683878080    0.38573433226920
C         2.20746741266894    2.48285788752159    0.37321942359754
C         2.71346932132727   -0.19005763270988   -1.57580402874407
N         3.40412295791773    0.97748987640552   -2.15074597937656
C         4.73779913184721    0.93782755405600   -2.43011698460535
N         5.53292717606201   -0.07536326356927   -2.41150726166338
C         4.86491391389890   -1.27403946772009   -2.25882709012958
C         3.55856496115265   -1.40819496523105   -1.96417906670490
S         2.66919433112884   -2.88732320836643   -1.73018927198669
N         3.83252337501571   -4.05688530544565   -1.91444470400307
C         5.06623200780124   -3.82632647981031   -2.21756134035733
C         5.67270456595083   -2.50005153864530   -2.52902163346235
O         6.82138782315184   -2.46491172859518   -2.95322201213860
H         4.36550279169448    0.22238394762804    0.84950642827641
H         4.11608425743776   -1.47636984080568    0.42435994315085
H         3.38318984185008   -0.86502801245366    1.91040039448208
H        -0.99156166780406   -1.58409841494404    0.61042267123995
H         2.18147826551986    3.52302531343169    0.61702775660807
H         1.70988443547776   -0.32323278194648   -2.00515298446660
H         2.85363745679476    1.83070381477892   -2.17660349672552
H         5.15830754499934    1.92750580717626   -2.67973086293281
H         5.78823910270005   -4.65654607189118   -2.17064018979378
