26
 energy: -46.153168490519 gnorm: 0.225367441117 xtb: 6.4.1 (79825abcba525fcdf90b791dcacef51065a7a4e7)
C         3.94744892954882   -0.23707801594234    0.60240119512326
C         2.58321920319062   -0.00997402470981   -0.08542125212966
C         1.66335224800899   -1.12199928890106    0.39171813965025
C         0.94927994689960   -2.13607404550913    0.79394926684950
C         2.03055739406112    1.33722496411785    0.22533092496627
C         1.71759847923048    2.46454266139875    0.48596596345643
C         2.73318838791306   -0.03676294374914   -1.66930642189779
N         3.51549531500329    1.11967040085608   -2.13982280784310
C         4.86878350171665    0.98621945881310   -2.23529702162880
N         5.46631318627835   -0.15145435000382   -2.32354177877549
C         4.77575954638063   -1.34562260834209   -2.26458890783629
C         3.44678735207104   -1.33795451975318   -2.05213454083321
S         2.40021184715579   -2.72602941980092   -2.15927691788933
N         3.44417177296257   -4.01573184928207   -2.11483205325418
C         4.71973569774432   -3.81585005882621   -2.12244777459616
C         5.58110318580641   -2.60074659947452   -2.19587344094730
O         6.80068112120589   -2.68368712192108   -2.27590166729143
H         4.66960316119102    0.57559381177443    0.45220224935273
H         4.36579150201002   -1.16180812084736    0.18992863330900
H         3.81417270587946   -0.27327572129736    1.68967626137251
H         0.37130833784145   -2.91433289098432    1.23772128344935
H         1.30894110464983    3.37233651946946    0.87452183031452
H         1.75614416487571    0.06976772093655   -2.16255541205830
H         3.00347769768083    1.99683226609225   -2.12972611833661
H         5.51898637653213    1.85114825555260   -2.45377323372583
H         5.26757955582502   -4.77015245389670   -2.16643026379308
