26
 energy: -46.156396905200 gnorm: 0.225290034205 xtb: 6.4.1 (79825abcba525fcdf90b791dcacef51065a7a4e7)
C         3.77048265209521   -0.17813043494435    0.81987786962600
C         2.49784617015880    0.02486729452227   -0.03158381664463
C         1.48059694070873   -1.02575629624659    0.38291768526587
C         0.77394829789701   -2.01515162091063    0.85385434974149
C         2.00896364310410    1.40699088461885    0.22856110578505
C         1.90005219940228    2.55741025432551    0.54698327694968
C         2.73621364563849   -0.05824013327114   -1.60262638292932
N         3.55567443346257    1.09433012281706   -2.01589833126298
C         4.83950825775673    0.89126462450367   -2.42681013962246
N         5.50166679658089   -0.20949347201858   -2.33189835295467
C         4.75844137177737   -1.36009322817400   -2.15836512415918
C         3.42900794841854   -1.38053873634046   -1.94967512217763
S         2.51404819388347   -2.85725458911864   -2.07501723477966
N         3.56243030544757   -4.06575995507729   -2.51724993066347
C         4.83561586215160   -3.85310828975196   -2.54643676114615
C         5.58441234882500   -2.60114818246156   -2.23704797936736
O         6.80381344380533   -2.56422366526125   -2.12591044857469
H         4.60251102406903    0.41353480307047    0.41718320259589
H         4.04517334862550   -1.23735406462853    0.76639691122999
H         3.61757483227214    0.11522763024951    1.86477027576693
H         0.15188496313133   -2.79680589297610    1.22631297374265
H         1.75348068757715    3.57551261976246    0.83689804195271
H         1.74842432111658   -0.02778714881969   -2.08491637296888
H         3.01049903116770    1.94041709291483   -2.15227113995340
H         5.38413421621485    1.78542600086952   -2.77674650460392
H         5.36491644584859   -4.76884893909292   -2.85306416895260
