26
 energy: -46.150075404652 gnorm: 0.226587037708 xtb: 6.4.1 (79825abcba525fcdf90b791dcacef51065a7a4e7)
C         3.94915183812009   -0.25220776831267    0.79068796057437
C         2.61934340447826   -0.03547149261997    0.03541739919142
C         1.55029177007518   -1.05099463150333    0.40454989610382
C         0.71425374098080   -1.91703928564323    0.90559264923868
C         2.07374003486001    1.31210472592341    0.35682437217609
C         1.56625940786900    2.39800108687573    0.36023399221614
C         2.80180373827552   -0.04841095484925   -1.54522849979092
N         3.59046966082516    1.13198207570558   -1.93944448927617
C         4.83188246282757    0.87942515968457   -2.44285551681575
N         5.52978196932067   -0.20297389563593   -2.42096648641369
C         4.82229651307801   -1.36331277487664   -2.17713124549549
C         3.50041777594410   -1.35883341857691   -1.92418994406793
S         2.44036674682084   -2.73316942787822   -2.06925566801845
N         3.49509443239648   -3.98090608074103   -2.36227918886157
C         4.77590949834183   -3.85260618648143   -2.46290703827811
C         5.60670907626852   -2.63065629387203   -2.26182938320033
O         6.83167027014918   -2.62447877765991   -2.25256069878902
H         4.73535077571734    0.19910522356615    0.17205254424081
H         4.12335577415375   -1.30299409919945    1.04714646367166
H         3.93952720841905    0.33907232317806    1.71347456568120
H         0.03641978025686   -2.73164077042856    1.02237094744868
H         1.09426415986427    3.33900028780002    0.17636664439307
H         1.78944114466273   -0.00053458751024   -1.97194691178219
H         3.11665584613626    1.97900709669532   -2.23898748922622
H         5.44749674358640    1.77554411364035   -2.63413369249290
H         5.29936739977686   -4.81673697186122   -2.55884486250194
