26
 energy: -46.151940733282 gnorm: 0.219917990847 xtb: 6.4.1 (79825abcba525fcdf90b791dcacef51065a7a4e7)
C         3.76280703086709   -0.41183482621232    0.72659881836713
C         2.53708104866353    0.06617584563719   -0.08266029485953
C         1.30958618048370   -0.71972416719483    0.34865740509948
C         0.11944462548555   -1.25004816412742    0.39719922851946
C         2.30626812480332    1.49423474015337    0.26993054973098
C         2.03779777967202    2.63479394684300    0.52245276899286
C         2.69694894625392   -0.21019762027118   -1.64149338366005
N         3.45761778445036    0.91977899951830   -2.20297682036988
C         4.80890755206291    0.86216127140389   -2.37329877007614
N         5.43941700528539   -0.24798930532282   -2.54404446097484
C         4.76481571201149   -1.43538621551771   -2.34062547769249
C         3.46686389045257   -1.48906825177536   -1.98877029776563
S         2.64794915467286   -2.98136678070622   -1.62002178255624
N         3.72338364831922   -4.16554767403684   -2.06309772568188
C         4.97947409520768   -3.96590767817673   -2.28548190353144
C         5.64631896902716   -2.63808465014059   -2.41207425408306
O         6.83296506325292   -2.47137275492095   -2.66649947291679
H         3.48264918057828   -0.50304198858495    1.78380967456460
H         4.50593025457140    0.39200379354743    0.68322558120448
H         4.19431215563900   -1.36468088530929    0.39929527518020
H        -0.71035901928611   -1.72492405546581    0.86899413082052
H         1.88907943134626    3.62305956134970    0.90097638846876
H         1.68209671338016   -0.09994999872084   -2.05036888227845
H         3.05194098236043    1.79021395883792   -1.87215021336782
H         5.29244592181563    1.85047717462927   -2.46285199927771
H         5.63506538271971   -4.83253534462803   -2.46413509962455
