26
 energy: -46.150102954292 gnorm: 0.212340739128 xtb: 6.4.1 (79825abcba525fcdf90b791dcacef51065a7a4e7)
C         3.71280153949132   -0.22384287128456    0.94123583497527
C         2.47907370548619   -0.00936247322806    0.03696127662085
C         1.41911909681752   -1.08179052354021    0.22882511198039
C         0.19331656547132   -1.52320512998782    0.17785388144492
C         1.88448233413252    1.34427743999227    0.21322017181481
C         1.45008470146498    2.43105618048021    0.47192804688838
C         2.86944152778829   -0.08728174666550   -1.50363671879945
N         3.69955099917473    1.02903814871419   -1.98889543864486
C         5.00716729292443    0.92771941756200   -2.36063127082508
N         5.58041250236011   -0.20414588696052   -2.58289555421492
C         4.88110174193220   -1.38063850112004   -2.40066720038495
C         3.68643277870897   -1.35385871655799   -1.78146477491265
S         2.74878653831155   -2.79059613242609   -1.48120351889434
N         3.69070567319460   -4.10393139535814   -1.85948760848709
C         4.89278759550948   -3.95722806906058   -2.30731707991574
C         5.59500311094273   -2.67574417410380   -2.60483022850462
O         6.69223078883564   -2.62977933530020   -3.14763097048491
H         4.66039795839694   -0.00495814648322    0.43265697079067
H         3.83722485336451   -1.26439917955798    1.26065921172194
H         3.61037151707815    0.40587817261478    1.83241448856331
H        -0.60601649606834   -2.20842226449495    0.34582936676850
H         0.84805177433675    3.30094840367181    0.62328879324534
H         1.95284964673227   -0.12682227234516   -2.10989956166377
H         3.33819205506484    1.94607969856116   -1.74367833204576
H         5.57521222250802    1.84877025730101   -2.57877746060576
H         5.43248367668069   -4.83152587155037   -2.70366528180638
