26
 energy: -46.151540920852 gnorm: 0.226359274877 xtb: 6.4.1 (79825abcba525fcdf90b791dcacef51065a7a4e7)
C         3.63639456330729   -0.63298733793047    0.89800180594220
C         2.47967387459091   -0.17789226315356   -0.01888663469849
C         1.21540410279431   -1.00637142912710    0.14130590942242
C         0.04439241137841   -1.50140330053152    0.43063587501853
C         2.11555115901903    1.22035647787719    0.34064395320879
C         1.90544225000269    2.38118344237029    0.55290350781675
C         2.75804002571714   -0.08978646633600   -1.58306382973775
N         3.55699178330120    1.06637151413790   -2.02544680054882
C         4.88956446566797    0.98169585592029   -2.30002551802576
N         5.57176213175026   -0.09883318538532   -2.46187079110949
C         4.88791382966060   -1.28868658399871   -2.31028587985918
C         3.57452430517491   -1.31193902818788   -2.01731825755385
S         2.70125316461678   -2.79707172913034   -1.76172074872952
N         3.79003698645728   -4.04822712702213   -1.82744734301136
C         5.01503976581434   -3.84664908973901   -2.18214233862733
C         5.61819783564754   -2.55405621840510   -2.61714314640027
O         6.73403440704008   -2.51482220226062   -3.12115051731999
H         4.19852808169653   -1.48782360184613    0.50080811525903
H         3.20278687694364   -0.85088377218080    1.88023161948230
H         4.35669401875344    0.19305198036558    0.90622597748512
H        -0.91498582970079   -1.82218771563945    0.76732916905616
H         1.74282906838280    3.42830540671894    0.69131865642379
H         1.80800606910714   -0.10214163737812   -2.13672581588276
H         3.23623644010901    1.96607475062253   -1.68000936741624
H         5.39814453008807    1.95733741734833   -2.38984376646968
H         5.80785160846280   -4.60809892365387   -2.11578013160848
