26
 energy: -46.150483570311 gnorm: 0.227394349757 xtb: 6.4.1 (79825abcba525fcdf90b791dcacef51065a7a4e7)
C         3.75400151516630   -0.24211872800385    0.89869839861633
C         2.53436277612424    0.08954886673123    0.01084894820645
C         1.36928941472868   -0.79089297741516    0.43256408261407
C         0.54148360454212   -1.70053773513780    0.86536972061784
C         2.10316621505218    1.49288975281688    0.25914515408327
C         1.79854757033414    2.65190361797483    0.28391303447600
C         2.76532887307404   -0.12721567783427   -1.54849977088983
N         3.60732610255193    0.95554975656743   -2.08644731879126
C         4.94814012771402    0.82252587415292   -2.29341542136753
N         5.58977206731988   -0.28675803478649   -2.16330689867580
C         4.84665691692160   -1.44459552858867   -2.04681730895047
C         3.50809642749352   -1.41835868290775   -1.90923023508773
S         2.54707078976017   -2.87063202550120   -1.93895518892511
N         3.58015227248469   -4.13085233270538   -2.25478339471867
C         4.83591051783484   -3.92640484378913   -2.47466180044833
C         5.62268739397334   -2.66031125846007   -2.43210733628882
O         6.80732214637134   -2.58513695483604   -2.73483382302634
H         4.43088369254037    0.61909782071856    0.83059159254177
H         4.20562699059608   -1.04908052713552    0.31123182284093
H         3.51206839266596   -0.52471936798543    1.92964220707100
H        -0.37156396932375   -2.17054286879415    1.15191976738905
H         1.31363455349829    3.60366315656411    0.31676652824783
H         1.77702034625815   -0.17441416835990   -2.02837196768645
H         3.16838631608538    1.85450120334394   -2.26221729253358
H         5.37909238862955    1.79945435351128   -2.57357315420203
H         5.39548034920613   -4.79840657936052   -2.84783064968082
