26
 energy: -46.152650234163 gnorm: 0.223733553581 xtb: 6.4.1 (79825abcba525fcdf90b791dcacef51065a7a4e7)
C         3.75029785844906   -0.06276856133136    0.89153699095497
C         2.45599233939493    0.02704657430270    0.05338118084163
C         1.41818644802961   -0.99964840735391    0.47678851988288
C         0.48041567576033   -1.90505975875390    0.50599511124520
C         1.81191919562258    1.36543454255654    0.15747038905897
C         1.51525957676056    2.52623758299836    0.19280427794236
C         2.84390546155031   -0.16562845993025   -1.47772965307006
N         3.62789630424877    1.00602210861957   -1.90588989553666
C         4.98375951728150    0.89498866556674   -1.99318207625735
N         5.62519523367386   -0.19722420308541   -2.22719453713124
C         4.92713287607247   -1.38802912791705   -2.19448104557027
C         3.64914849374291   -1.43528913519566   -1.77509440840978
S         2.60045672903676   -2.82368219867606   -1.69659606760352
N         3.55147409024965   -4.01597753108583   -2.35169746960457
C         4.77399665498424   -3.81904731123630   -2.71739013037536
C         5.65635133695656   -2.62131962133568   -2.61385130086288
O         6.82325728984473   -2.73209050776593   -2.96982081065643
H         4.36102703188236   -0.84015151157331    0.41489499897954
H         3.53413846016974   -0.17279214087050    1.95991885804011
H         4.31292661745044    0.87243942983183    0.79116373601398
H        -0.23691569940486   -2.66356315829503    0.72228176118162
H         1.21825127741446    3.53413419897128    0.38773167417012
H         1.95755480320752   -0.26604599916034   -2.12081409479961
H         3.33566916573106    1.85326649133651   -1.42791794551816
H         5.58565318842947    1.81396974461782   -2.10178799370699
H         5.23987237955977   -4.66334981253364   -3.24924867063538
