26
 energy: -46.154536726921 gnorm: 0.225248594233 xtb: 6.4.1 (79825abcba525fcdf90b791dcacef51065a7a4e7)
C         3.68811772323502   -0.48801330756862    0.91993906939867
C         2.47549665955096   -0.11237099472833    0.04002901118123
C         1.22006753380597   -0.93414448856172    0.28293532144080
C         0.15356690885451   -1.68349298412921    0.31595072368779
C         2.04743503512553    1.29035151145082    0.29708924649451
C         1.72550492824535    2.43420219815803    0.45420618973171
C         2.84247064768936   -0.10921598308663   -1.50826708176854
N         3.70640788982873    1.05180777804991   -1.78460771790828
C         4.95131690411580    1.01028247998156   -2.33849451882772
N         5.52241258499882   -0.12635534744818   -2.54106481571102
C         4.86567853438361   -1.31687664751735   -2.30077954978857
C         3.59454064334693   -1.39589391626437   -1.86566179149309
S         2.65801903774162   -2.84090239665690   -1.60407152808456
N         3.70418060402126   -4.04844333198322   -2.05412807297190
C         4.89085757145990   -3.79382227036379   -2.49462772760136
C         5.68580008677875   -2.53448564140762   -2.57182454994302
O         6.84641984454619   -2.56693036133256   -2.96241782201519
H         3.79079175580874   -1.57935262425232    0.97414701343515
H         3.44741344634582   -0.13827848083236    1.92989792633658
H         4.62539119652219   -0.05781062337248    0.54888114486540
H        -0.75896641090287   -2.22460701680606    0.42154509143033
H         1.48395536790243    3.47463232213082    0.41920361783671
H         1.88802717217448    0.01453623863738   -2.04022742051326
H         3.24914199530843    1.94951590292971   -1.65536009738898
H         5.43925554981245    1.96023541490305   -2.61796321564839
H         5.51622391667887   -4.59701468370714   -2.91481732098571
