26
 energy: -46.150585478256 gnorm: 0.218918836023 xtb: 6.4.1 (79825abcba525fcdf90b791dcacef51065a7a4e7)
C         3.69163067568939   -0.34587711833352    0.88905455419744
C         2.49202285952457   -0.04164577492212   -0.03516569033822
C         1.33537780600963   -1.02055641012229    0.08451555018624
C         0.27892328983322   -1.78117152418885    0.15803596819776
C         1.93327624728343    1.29467758495309    0.30978244675548
C         1.35359718651974    2.30699898840708    0.58527593981659
C         2.93923249426622    0.01653146662238   -1.56111443702184
N         3.84252925221289    1.11467090507786   -1.94695456770257
C         5.10198946255287    0.89013212958173   -2.41775782299948
N         5.67934685427285   -0.24997302476376   -2.57884548094209
C         4.90230414954293   -1.36110375970919   -2.31813353438748
C         3.63396407665321   -1.31409683306310   -1.87039862945013
S         2.61291925223974   -2.69325304514719   -1.57215828166993
N         3.62447619772000   -3.98351776020689   -1.83125196712186
C         4.88649698459229   -3.90511250406660   -2.09246109161543
C         5.57561530709591   -2.67027164495205   -2.56585911063045
O         6.69640135928397   -2.66135405026592   -3.06024063904972
H         4.38090956236197    0.50599385286140    0.82812487742719
H         4.25625910079252   -1.25733284848595    0.66385891383701
H         3.35102905922835   -0.34247876453084    1.93079294943919
H        -0.52180094521096   -2.47357362663450    0.03118311903029
H         1.00976011514537    3.24787869808669    0.95754955326349
H         2.02305882259520    0.22557906809979   -2.13223934757400
H         3.33859801620205    1.97890052678702   -2.12256034804843
H         5.60820963024215    1.81151350746420   -2.75449949528491
H         5.49901617544571   -4.82028915452650   -2.08677351637359
