26
 energy: -46.152365265649 gnorm: 0.223169150872 xtb: 6.4.1 (79825abcba525fcdf90b791dcacef51065a7a4e7)
C         3.65440061299380   -0.37791247714932    1.03053002910676
C         2.50226571626924   -0.00161852567307    0.07304021811929
C         1.37035602448101   -0.99281158778048    0.28922119759765
C         0.19574699160641   -1.41076556029283    0.67085567789246
C         1.87085404880223    1.31701087003260    0.35496742143959
C         1.22492646490137    2.31932070348529    0.47691684739497
C         2.93248714778063   -0.08379201975693   -1.45668448515759
N         3.82144244313961    1.02785659424419   -1.83711019128985
C         5.10892719158672    0.91393488252798   -2.27037484329046
N         5.65269012613951   -0.24291493998955   -2.42896525141409
C         4.91856788425545   -1.40057227599722   -2.26382401444741
C         3.62779125057833   -1.38130155501187   -1.88318368048643
S         2.68842784848127   -2.83325378006609   -1.67586065904546
N         3.70590880841540   -4.05642675669132   -2.14887270205617
C         4.90193768014658   -3.87404811801871   -2.59979068721825
C         5.65852579091709   -2.59887750701769   -2.75896369067551
O         6.73883527149442   -2.55344341002026   -3.33474243525283
H         4.11831379140432   -1.33050771432715    0.74443767070524
H         3.28312780864845   -0.53597432324992    2.04907941236800
H         4.39861752011975    0.42625867704284    1.05679495906119
H        -0.67138108883054   -1.93929235187182    0.99554007217290
H         0.75206522241061    3.27578644393549    0.41657002266234
H         1.99073833004104    0.08814960842234   -1.99779815776939
H         3.40254039362101    1.95316205150086   -1.83431619478756
H         5.80149109932928    1.76771579566555   -2.37042903369031
H         5.44989145671702   -4.68502895428971   -3.10458485884173
