26
 energy: -46.151625674501 gnorm: 0.227265940564 xtb: 6.4.1 (79825abcba525fcdf90b791dcacef51065a7a4e7)
C         3.61654696016030   -0.25187795820832    1.02307330466510
C         2.48274934568456    0.10169489707578    0.03550664629636
C         1.25281632952577   -0.77927974023780    0.18235999468678
C         0.28917032259693   -1.59415492437433    0.51008179314368
C         1.96882015440476    1.48737569432684    0.21637303823843
C         1.40023009430423    2.54075297685361    0.15456073642101
C         2.96178102363377   -0.06081502742596   -1.47314169571424
N         3.88325105880266    1.05867711494505   -1.73459570315983
C         5.10243602240042    0.82783606254373   -2.29905458417538
N         5.56538245083339   -0.31346956252614   -2.67619200266947
C         4.84502979227469   -1.46271459105882   -2.41791789155323
C         3.63684487103361   -1.38981450957050   -1.82941341035785
S         2.78899820759808   -2.84196044919409   -1.37556331236858
N         3.60109214763586   -4.13814299229368   -2.02021381744958
C         4.74842226195611   -3.98253684053363   -2.59161069494790
C         5.54730212791722   -2.73472054805400   -2.76062890782103
O         6.71863707633676   -2.70565108890366   -3.11809694708530
H         3.96191097654634    0.70212128492243    1.44153609198753
H         4.40064895826832   -0.79330109058564    0.48241173040594
H         3.10551173297445   -0.80186544952609    1.82156980228365
H        -0.58398295501009   -2.19700322848695    0.61423986588695
H         1.09672691729411    3.56276434433595    0.22834960684496
H         2.07606170881361   -0.07758484328708   -2.12466210176944
H         3.58530171577445    2.00236928003473   -1.50579839572132
H         5.68285696677581    1.75367047375076   -2.45570587791781
H         5.27551007590951   -4.84728857592711   -3.02421130107308
