26
 energy: -46.151343323338 gnorm: 0.222855400730 xtb: 6.4.1 (79825abcba525fcdf90b791dcacef51065a7a4e7)
C         3.76901383754051   -0.14507381700928    0.88402449904029
C         2.58783942956257    0.14536884833361   -0.06795700551344
C         1.46235259570297   -0.84870453945621    0.16765909016127
C         0.61579375240720   -1.75601779733637    0.56785598828489
C         2.00807609029503    1.48340578067389    0.23283991231180
C         1.40916236271949    2.36390578794973    0.78305914764997
C         2.90111097687817   -0.00207585375688   -1.62102547058311
N         3.86953954702153    1.03866632266364   -2.00797471330031
C         5.07662384817413    0.80874632119304   -2.59822693182344
N         5.61852368919083   -0.35064158188861   -2.74415436135841
C         4.82082180816513   -1.41358757840398   -2.36972797966303
C         3.55608801534706   -1.35655337702728   -1.91304616666184
S         2.53358042170859   -2.75085263611314   -1.70338095855599
N         3.47727519567920   -4.07500434419541   -2.03688126536978
C         4.72169708271209   -3.96942294231837   -2.36451031362626
C         5.53486721349152   -2.72222919200599   -2.44867555436905
O         6.75210424751006   -2.81398964339897   -2.55147642536590
H         3.52221133886710    0.37894085678228    1.81622571865268
H         4.68962929011717    0.26195001299339    0.45151012825791
H         3.87222780462670   -1.21694090831433    1.08820019368770
H        -0.32535981044066   -2.24942198229392    0.65419205196221
H         0.89032631929532    3.20865885932727    1.18214262537007
H         1.93772311895123    0.15954940398666   -2.12602039752908
H         3.36674018310096    1.90421606117834   -2.18029237909600
H         5.64912799502285    1.72994069986993   -2.80374427335845
H         5.37149827942385   -4.84860879939087   -2.49699067503262
