26
 energy: -46.143674952875 gnorm: 0.220315978361 xtb: 6.4.1 (79825abcba525fcdf90b791dcacef51065a7a4e7)
C         3.78831274203357   -0.32462811560141    0.92392402961596
C         2.63336183527628    0.07877306363084   -0.01902592108590
C         1.58114019884313   -0.95924355685779    0.33561278033523
C         0.47670610092559   -1.62080583453760    0.12922121908030
C         1.90117327241328    1.34164367624176    0.27423997299360
C         1.16188342039212    2.19987689827238    0.66616519613740
C         2.89158698227783   -0.03933318300949   -1.58467957361417
N         3.69416517016913    1.14489071192048   -1.93711383077945
C         5.02710070118837    0.92921058893821   -2.12440599612773
N         5.59688926707500   -0.21780391301471   -2.26162582459614
C         4.88320907295934   -1.39647573803349   -2.17347304240550
C         3.57109362145348   -1.38219513388056   -1.87428772245671
S         2.54255151869898   -2.78625538499343   -1.80896042152575
N         3.62840236026882   -3.99323368051592   -2.15434625055888
C         4.86789980270367   -3.86678999503058   -2.49306758440347
C         5.63537761654362   -2.59712685008362   -2.64391519193974
O         6.79727720613970   -2.55346183721896   -3.02957916554778
H         3.58877372918165   -1.34924420888609    1.26281635743750
H         4.00563413751051    0.40461685762534    1.71211377249022
H         4.75326758776215   -0.35393335140108    0.40503748206075
H        -0.13274704129401   -2.46983843000455    0.33989196696770
H         0.47552459222403    2.86257215585863    1.14763458455830
H         1.91193409526121    0.03050089098932   -2.07931296746679
H         3.33549087607399    2.03928732859805   -1.61604628752482
H         5.71759879078662    1.78981463251820   -2.15861896354995
H         5.36063581440504   -4.83204994186280   -2.68863053172161
