26
 energy: -46.153266282207 gnorm: 0.211491294796 xtb: 6.4.1 (79825abcba525fcdf90b791dcacef51065a7a4e7)
C         3.85198875681429   -0.49954466814731    0.68455466671105
C         2.59375777581894   -0.10234652804745   -0.11849398764373
C         1.47973383558276   -1.09536298226292    0.17009991606417
C         0.29121520411406   -1.55077565706266    0.45304786400605
C         1.99789930905528    1.20470150995781    0.27332900759858
C         1.52511200905102    2.22855455653547    0.67942779655559
C         2.83014111958540   -0.03118259248373   -1.69042250729128
N         3.63994298001215    1.15283772654251   -2.02664373106418
C         4.94439975691770    1.00491402826504   -2.39382827368516
N         5.56046988168192   -0.11083337783296   -2.58009656862122
C         4.86998904023829   -1.29155604708889   -2.39166151989571
C         3.57391581568012   -1.32728396384727   -2.03071768948667
S         2.60618118192157   -2.69285298699061   -1.54878136401060
N         3.62398376660982   -3.98257232359093   -1.78513270375385
C         4.86127421519574   -3.86359694828052   -2.13446242621055
C         5.55497387481627   -2.60906802816998   -2.54526608908253
O         6.67426540674406   -2.67650107527229   -3.03851372874445
H         4.75743362084980    0.08401059385747    0.47447179198733
H         4.06513564588446   -1.55712357871566    0.49385819958923
H         3.61307677770328   -0.31172484973664    1.73759060250526
H        -0.40971556379693   -2.33087068265266    0.64493180262675
H         1.19100457685950    3.17140156536001    1.05556334756174
H         1.86624075505468    0.05123165205341   -2.21326353913010
H         3.35912518868353    2.06319537227778   -1.67441192367523
H         5.55118277951559    1.91967841340367   -2.51052419375580
H         5.47091293728660   -4.77725012174088   -2.21407971549136
