26
 energy: -46.151908385922 gnorm: 0.214831350936 xtb: 6.4.1 (79825abcba525fcdf90b791dcacef51065a7a4e7)
C         3.78824892668498   -0.05862690705073    0.85157712926849
C         2.49571395238837    0.08133405712233    0.01757294594417
C         1.35923044540187   -0.86104774321634    0.37915175798577
C         0.78175506311381   -1.76334533103936    1.12240005426026
C         1.95629463812999    1.46144234262310    0.16343271952756
C         1.61330187974378    2.60761487920123    0.09019607093167
C         2.82477033200392   -0.08785862990421   -1.53000464168036
N         3.72018634764654    0.96391022479454   -2.04258665403289
C         5.06744919147269    0.75835627759307   -2.07330807405483
N         5.64622048167909   -0.38821375691305   -2.17093755163630
C         4.79959885657866   -1.47866798678418   -2.14815582757890
C         3.48622797887002   -1.43088204506955   -1.85809343186351
S         2.45424208048607   -2.82280087283718   -2.03449861361721
N         3.51737981236572   -4.08890352447815   -2.18242517070472
C         4.76932277079324   -3.98167696842093   -2.47943586775812
C         5.54929054608398   -2.71169405120149   -2.53057645074783
O         6.73175987263232   -2.63801351591828   -2.84201098044197
H         3.56088243006952   -0.24874461998668    1.90829927545507
H         4.21499998677633    0.94531803209799    0.75034478932165
H         4.46102510853134   -0.81218424433124    0.42641428193383
H        -0.00871459670209   -2.44958610720196    1.32464483417049
H         1.50938429213844    3.66667460787874    0.18848055593543
H         1.85870249015577    0.01735170369462   -2.04469141956173
H         3.35294359540845    1.91028719406041   -2.07694239408571
H         5.61590862852246    1.70298609401515   -2.23288318791321
H         5.32857954309995   -4.93035494714839   -2.47789766971918
