26
 energy: -46.147393905506 gnorm: 0.224858322163 xtb: 6.4.1 (79825abcba525fcdf90b791dcacef51065a7a4e7)
C         3.94958542370441   -0.30274712319836    0.51520552901680
C         2.55895060831251   -0.01202619663152   -0.09094201957282
C         1.48079031357434   -0.93288788867962    0.45678194526180
C         0.35818907790638   -1.52546499789598    0.75453283191242
C         2.24929019176019    1.38764409254536    0.31152614568447
C         1.89653869286040    2.48114814121480    0.65289746346665
C         2.64920752314269   -0.14720825747527   -1.67381287450492
N         3.45237213192628    0.99821001734921   -2.13605899227040
C         4.78469798046047    0.84747927860098   -2.38202946783571
N         5.48019414039755   -0.23356770929065   -2.46420650301791
C         4.77678686983968   -1.38520207754733   -2.17208649686299
C         3.44624983567828   -1.42164790952641   -1.97282372915648
S         2.51139487547600   -2.89114429494250   -1.95947153048057
N         3.60398808103353   -4.01757322232217   -2.50035782911366
C         4.88670574453776   -3.88216972125053   -2.44226008244872
C         5.61547061833270   -2.61945129234922   -2.12878659219299
O         6.82173584309139   -2.52806354087832   -1.93584493791429
H         4.66968239819402    0.32462827866355   -0.02549994980922
H         4.21534950735237   -1.36508951129046    0.54788562832533
H         3.99408408823521    0.09114385355622    1.53702237394536
H        -0.37999548671479   -2.14082705740402    1.21614382129841
H         1.76563943244290    3.51077817720118    0.90744328370832
H         1.62279607824211   -0.10011060414362   -2.06562930535771
H         2.96417433192240    1.88338681944360   -2.03705464374601
H         5.40401737654297    1.65046995763770   -2.81820250250680
H         5.55161239249240   -4.71339110966688   -2.72462609513790
