26
 energy: -46.152507054289 gnorm: 0.228053580775 xtb: 6.4.1 (79825abcba525fcdf90b791dcacef51065a7a4e7)
C         3.88511486760315   -0.32006043277159    0.79089287118230
C         2.61955052376830    0.07662816609087   -0.00080388597917
C         1.41938211990494   -0.78200811337121    0.36355445957977
C         0.24665235761994   -1.34929394028325    0.41766988812284
C         2.22459660886020    1.47267093769247    0.33389467645666
C         1.62595929492234    2.47456412600126    0.60695607059534
C         2.73735387198883   -0.16550242739851   -1.56904997758424
N         3.50813306420137    0.94072693691475   -2.16309031143355
C         4.85355247715887    0.87690349549738   -2.37305832963544
N         5.53261725188979   -0.21627148915043   -2.42755644204991
C         4.82867675075201   -1.37895874834170   -2.18464966975396
C         3.53360554144731   -1.44971803033067   -1.82528019633350
S         2.56683440376196   -2.89846674915574   -1.83097353085466
N         3.66772508497770   -4.10783289630801   -2.11493348439482
C         4.92440987182777   -3.89342336651670   -2.31949631829576
C         5.66003958356294   -2.59909451254673   -2.40542323297421
O         6.84156715588702   -2.67922149527195   -2.71883389784804
H         4.73224711744604    0.26189117633839    0.40592372993820
H         4.06001100183565   -1.39420019766914    0.66477784746788
H         3.70345473681137   -0.21028249426994    1.86615483915257
H        -0.49097915647494   -1.99593001621515    0.83532186257678
H         1.33989827409851    3.46619228018389    0.88428062554452
H         1.72781811204145   -0.04864477427020   -1.98909830621190
H         3.00277061221826    1.82170767054076   -2.17568651755976
H         5.36839125283365    1.74605477016247   -2.81815894190307
H         5.51895809112469   -4.81270942696448   -2.43860115659947
