26
 energy: -46.155371332350 gnorm: 0.230561228467 xtb: 6.4.1 (79825abcba525fcdf90b791dcacef51065a7a4e7)
C         3.70885581854051   -0.03658870374319    0.98271109023997
C         2.52925082758101    0.16529370290535    0.00619982145392
C         1.46688786461891   -0.87565317506838    0.31961961320341
C         0.49156304171299   -1.69420808134023    0.60023700162779
C         1.97792904601013    1.54098238684506    0.14928043969914
C         1.42211227012655    2.57433568294391    0.39416364908446
C         2.90761018487288   -0.10873206155258   -1.51487043274037
N         3.79836153606752    0.99811465371744   -1.90497332290926
C         5.03374167307005    0.79082418918168   -2.44272789408719
N         5.60428590989469   -0.35144053403068   -2.61255468085027
C         4.88259705748051   -1.47836312503080   -2.27257191670215
C         3.60625129118733   -1.43148847407766   -1.84818176131699
S         2.55722565296653   -2.81409606155245   -1.70157624249431
N         3.47764851786627   -4.07041197492423   -2.27572962410872
C         4.75163474199168   -3.99368295993893   -2.47103917555589
C         5.59296123765080   -2.76425430590779   -2.53809599870659
O         6.78210359083322   -2.83607125428095   -2.82346731286153
H         3.27868193603891   -0.21125252811196    1.97716819956994
H         4.27364107072324    0.90211034846283    0.99418275084992
H         4.34078160059568   -0.88767822673540    0.70422172643434
H        -0.29422885743492   -2.33511782890136    0.92953536383494
H         1.18455186902399    3.57119921049659    0.69730449279040
H         1.97085163274680   -0.01825781002965   -2.08369078437621
H         3.56075769201617    1.93920803022068   -1.60569988002810
H         5.58554513759873    1.71001435796202   -2.70578649931528
H         5.33819879119176   -4.92031155054219   -2.57135111508255
