26
 energy: -46.151257490723 gnorm: 0.223868125826 xtb: 6.4.1 (79825abcba525fcdf90b791dcacef51065a7a4e7)
C         3.51891281915534   -0.30698876700008    1.10065771934376
C         2.42432722326154    0.05728737063773    0.07353359557848
C         1.32815543742383   -0.97809196611976    0.26540455776641
C         0.40413266683356   -1.85025977553266    0.55788017713577
C         1.87705247183899    1.42595795454041    0.28371992131376
C         1.18778273856006    2.40308129937793    0.36652272801932
C         3.03112430674860   -0.01611847844288   -1.39558502436012
N         3.98732419844893    1.09158019728773   -1.56708806770545
C         5.15724481715461    0.90132362243561   -2.24043907605535
N         5.58500934333450   -0.21747832876377   -2.71417979198766
C         4.87714977127644   -1.36854477767131   -2.43070410259712
C         3.74758113663756   -1.33638325556191   -1.69967530982883
S         2.77018690572317   -2.76059473182214   -1.47635064863480
N         3.61299062012577   -4.03067173631454   -2.13342471692430
C         4.72357692252246   -3.85203275784824   -2.76727031417346
C         5.53913226089792   -2.61317487582922   -2.92193880850319
O         6.65595562398996   -2.72819927615729   -3.41196835451117
H         4.51180650868919    0.02896487885166    0.77538978384982
H         3.68494764481015   -1.38988217315318    1.10730573870989
H         3.31116625566089    0.19886669724412    2.05049534295018
H        -0.34805702161654   -2.60539150207750    0.53222145176116
H         0.71704981047130    3.35689924682290    0.47000236705801
H         2.17952004512416   -0.00147290065558   -2.09115274851375
H         3.66457126433428    1.99457726097042   -1.23226905635369
H         5.80189376169459    1.79673834839469   -2.27590265527398
H         5.11236417018213   -4.75744519760760   -3.25903570937070
