26
 energy: -46.153529325502 gnorm: 0.220009030811 xtb: 6.4.1 (79825abcba525fcdf90b791dcacef51065a7a4e7)
C         3.76427611925307   -0.05614093634690    0.87220999226386
C         2.48583750027332    0.06446724632064    0.01381203524921
C         1.48572335382722   -1.02234342427668    0.37302183118844
C         0.54516595222326   -1.92501928295412    0.39678783884085
C         1.80790203476520    1.36102010068344    0.29003893721850
C         1.29143619812232    2.41538347023108    0.53149290317752
C         2.89914671206389   -0.08536335235569   -1.51544494351463
N         3.75240870550948    1.01113626414883   -2.00571061609566
C         5.07831655496323    0.86426172501876   -2.28626299514355
N         5.67538606089512   -0.27399929664958   -2.36993145050414
C         4.92421039088518   -1.41054307151289   -2.14547440310053
C         3.62728154265857   -1.40656572459941   -1.78586003294060
S         2.62765369072290   -2.81694006947016   -1.57339810505572
N         3.48110529181332   -3.91939197925702   -2.47416454654682
C         4.71401764663922   -3.82754481607633   -2.84640813248765
C         5.60810412159421   -2.66374224578808   -2.58184309637208
O         6.83259160324175   -2.69937275298508   -2.57798638573086
H         3.96998925051048   -1.10244126160309    1.13190153155133
H         3.66288921113438    0.55397923258217    1.77650195916965
H         4.68116211654512    0.26029022572388    0.36188531009091
H        -0.31948311337064   -2.54118474187269    0.49370915231636
H         0.75483564657131    3.26778405257528    0.88861934270461
H         1.96508042236868   -0.05380098383811   -2.09491258404304
H         3.38513677766668    1.95788324606933   -1.98430024644459
H         5.57325494510328    1.83652599065055   -2.45459493883455
H         5.11955027497247   -4.65588425930441   -3.44820333571979
