26
 energy: -46.149138173737 gnorm: 0.221118712632 xtb: 6.4.1 (79825abcba525fcdf90b791dcacef51065a7a4e7)
C         3.72614323167413   -0.02061225708065    1.05553861054505
C         2.48927589715944    0.02810255518218    0.13164210644456
C         1.33294185582699   -0.89784085830954    0.47213850843575
C         0.20128655197303   -1.44425744476864    0.81973302033860
C         1.89014153244128    1.38954829780056    0.19835519755104
C         1.19437940727844    2.35748310899557    0.32379992919049
C         2.90676170570459   -0.17817876423025   -1.38988812225571
N         3.67405177364358    0.94506023761920   -1.95586336966675
C         5.02556357802570    0.82836475902630   -2.09044200508704
N         5.69385755818798   -0.25694420253180   -2.27650160723626
C         4.97562238704182   -1.43606667688492   -2.29014074228537
C         3.70836473825725   -1.40518495929844   -1.83796035114273
S         2.76272184653565   -2.86212248247794   -1.70894763876239
N         3.63323344455452   -4.07727779145875   -2.43058962701794
C         4.82805355051677   -3.89783720701392   -2.88586981251897
C         5.66201273798231   -2.66563745853954   -2.78578213443267
O         6.82527408835910   -2.72285385342574   -3.16552323234140
H         4.42817074447142   -0.81746838743225    0.77862772646883
H         3.31809451096974   -0.22154171771615    2.05222987839346
H         4.23309039287791    0.94011592720501    0.90977912130795
H        -0.57297555766223   -2.14982922491524    1.01812221256368
H         0.71139956251345    3.30828174987328    0.39292751929219
H         1.97665582474943   -0.21415185924935   -1.97543722964691
H         3.37313139028153    1.82386140165810   -1.54497121129772
H         5.57667334992056    1.78317343759518   -2.03373338732578
H         5.24510081514649   -4.79963710646451   -3.36083184102239
