26
 energy: -46.153412349145 gnorm: 0.213132856421 xtb: 6.4.1 (79825abcba525fcdf90b791dcacef51065a7a4e7)
C         3.61903269912928   -0.39129207246381    0.81124363773648
C         2.39119073064031   -0.09393808818901   -0.07745396121358
C         1.17116843097205   -0.95839044611027    0.19583189798798
C         0.23198842993167   -1.51937306273160    0.90525152630585
C         2.06567172938272    1.33491699010082    0.18590453972038
C         1.96509515418715    2.52927620687776    0.19637067256012
C         2.76198485018556   -0.17117801417202   -1.62291388393155
N         3.48393204710992    1.02815314639406   -2.08239717875042
C         4.84306560496494    0.96612185803079   -2.16737654315535
N         5.48848709765927   -0.14594868833295   -2.24393211877325
C         4.87306645464912   -1.38056088060338   -2.30196463696500
C         3.57111530930124   -1.42725636786183   -1.96416957684711
S         2.68633209220930   -2.88969390894016   -1.62952527344228
N         3.78870053181697   -4.07235026898423   -2.00538134667052
C         4.97643054454665   -3.84140270155755   -2.45597506433946
C         5.73437635677515   -2.56452453934176   -2.59353235719043
O         6.90913283154431   -2.57462598927709   -2.94066226957252
H         4.34262603310575    0.43190070173947    0.75407452174644
H         4.07761091138628   -1.32916851741127    0.47903332866483
H         3.27144839021589   -0.52647157787111    1.84185100727220
H        -0.71330769540149   -1.96145116613715    1.12354907578458
H         1.81685485809571    3.58349757607222    0.28968913276705
H         1.82579862072651   -0.23028050903679   -2.19677886381818
H         3.03518181451275    1.93770365653909   -2.13733369428821
H         5.34982779052722    1.94403926373489   -2.24131634098255
H         5.60909123866569   -4.73880231633071   -2.54067921027410
