26
 energy: -46.154252465418 gnorm: 0.217450971555 xtb: 6.4.1 (79825abcba525fcdf90b791dcacef51065a7a4e7)
C         3.78921506085837    0.16830192715148    0.85233259231608
C         2.50682252960191    0.14804867493623   -0.00839843533421
C         1.51213962041030   -0.94306035089209    0.35285556451420
C         1.05678016582384   -2.07011797824575    0.82447580184927
C         1.77173421679223    1.44280846781534    0.00536359251387
C         1.41814914763420    2.57440806670359    0.18193953982257
C         2.82436868773060   -0.06807226946642   -1.55253470796427
N         3.71958804378589    0.97276876441899   -2.08728710836702
C         5.06872575833268    0.79521806108747   -2.00594480021428
N         5.67043467699951   -0.33877626811167   -1.90042799501592
C         4.85112882475505   -1.44447372657959   -2.01244872315779
C         3.52518615306115   -1.41124161355239   -1.78411914770837
S         2.50262776772305   -2.81138477206143   -1.95002629678752
N         3.47721825964806   -4.11696339916164   -2.26751305937662
C         4.73868034388880   -3.95371856852307   -2.48918530888915
C         5.52040413496272   -2.68390955215140   -2.50692400237029
O         6.67963197847094   -2.73094870322488   -2.90015689593093
H         4.31950915262699    1.12243066710385    0.73862909749207
H         4.40456831418553   -0.70867906692488    0.62317195216299
H         3.40161008870585    0.08541064107208    1.87416003423955
H         0.31440835013876   -2.81676973420999    0.99200751657289
H         0.90752451346288    3.51257926192351    0.21604970118400
H         1.85892789833406   -0.05354795278319   -2.07881589847367
H         3.23863917936687    1.84451271753169   -2.28835324996399
H         5.63046446196812    1.73475510767891   -2.14848329781649
H         5.41999422617357   -4.80238930575793   -2.65749984187012
