26
 energy: -46.152669526495 gnorm: 0.222225629670 xtb: 6.4.1 (79825abcba525fcdf90b791dcacef51065a7a4e7)
C         3.55055348087607   -0.59606896602694    0.91265181507877
C         2.39672506255812   -0.08495352416981    0.02201177506591
C         1.24671404961733   -1.07710886464407    0.08134037142446
C         0.03107491567717   -1.54026722134875    0.16933240718327
C         1.97927996583476    1.27238054407754    0.46959520854932
C         1.64156546975736    2.40058964060340    0.69278179581792
C         2.86964324234649   -0.04911156692345   -1.49685766799971
N         3.74802334627359    1.09231140811980   -1.80722819688581
C         5.04364558776828    0.89621538745114   -2.18302435752929
N         5.68958568695792   -0.19668609994846   -2.40087359566460
C         4.90791788386940   -1.33296405796769   -2.33571642145907
C         3.63947132538083   -1.31587919732365   -1.88614530102307
S         2.82817830092857   -2.77938659719317   -1.40292543918176
N         3.76624350776127   -4.03197015502486   -1.95630426738647
C         4.90617230361005   -3.83724541797939   -2.53051561920012
C         5.57705095978902   -2.55184420060889   -2.87906581610703
O         6.59277912928525   -2.44628922492471   -3.55568123842258
H         4.45629322346931   -0.05816059685253    0.60476860982420
H         3.56173606534038   -1.68754159882081    0.81867133228199
H         3.36065153057974   -0.33134967857013    1.95912247617141
H        -0.85738268295818   -2.11241785452646    0.31060651868681
H         1.47217005148635    3.45048964493195    0.79804990271426
H         1.96908105505686    0.04987841519004   -2.12011323084403
H         3.39619638581899    1.99912475166747   -1.51468029830274
H         5.63446470529674    1.82418044314072   -2.27473633075203
H         5.44414358966050   -4.71243247224902   -2.92724591715213
