26
 energy: -46.144142433624 gnorm: 0.219834202299 xtb: 6.4.1 (79825abcba525fcdf90b791dcacef51065a7a4e7)
C         3.54081655226491   -0.43685148635846    0.96151873008029
C         2.40598951767383    0.01231174208282    0.01483044815845
C         1.09504332627223   -0.64674651342219    0.41166762168197
C        -0.07448246135177   -1.19341452401938    0.59442508663024
C         2.22033615434881    1.48611599798010    0.11671757567293
C         1.86946900310507    2.59062510200400    0.42277476071826
C         2.73207271197874   -0.28434975290427   -1.51407843019815
N         3.46682109713456    0.87944289473596   -2.03987246767880
C         4.82186516292981    0.89036630607365   -2.18836375168634
N         5.48391002529289   -0.20721810855236   -2.31538980124665
C         4.85834717574328   -1.42403712547602   -2.12991685443189
C         3.56986515535566   -1.54390777779894   -1.76004137773550
S         2.73432208321147   -3.06907175991096   -1.85644838800689
N         3.89891927448492   -4.06327347648530   -2.49710145972964
C         5.16172879161924   -3.86025535629225   -2.67365125302712
C         5.80140455493678   -2.52722619303724   -2.47956396518778
O         7.01431156704571   -2.37583186098790   -2.56074483964515
H         4.43778446275221   -0.61147555898249    0.35368901288217
H         3.27389898548865   -1.39598992086303    1.41876960971813
H         3.77749132921523    0.36179710730823    1.67382861509220
H        -0.75227047905505   -1.77416594792737    1.17752269374131
H         1.57767290912305    3.59890124782070    0.62352451843002
H         1.76585098417789   -0.29609788964970   -2.03899396901698
H         3.00293712565572    1.75062913404959   -2.27971225103605
H         5.29659868019905    1.84469908043054   -2.47554749539057
H         5.72549896313309   -4.76330410120897   -2.95547845092965
