26
 energy: -46.149636429620 gnorm: 0.225816154521 xtb: 6.4.1 (79825abcba525fcdf90b791dcacef51065a7a4e7)
C         3.67580430120578    0.01188553485432    0.92947889518483
C         2.48597125625298    0.07256701929009   -0.05358457869009
C         1.49984933147982   -1.01129755012852    0.35041863077944
C         0.78273419935181   -1.76379755516828    1.13751862900493
C         1.81175395702821    1.38809447076507    0.12464477351710
C         1.15888834959506    2.39000311403576    0.04300722368925
C         2.88828113703644   -0.07113374050460   -1.58635902462392
N         3.82795134803836    1.03286914727045   -1.84889550220711
C         5.13963655357780    0.75682091084154   -2.09707425388439
N         5.72813380839380   -0.38163923533465   -2.22634158043815
C         4.85279272871345   -1.44933965654699   -2.21324903450812
C         3.54399475962176   -1.42020143667718   -1.90090053178599
S         2.52751438976797   -2.81885928684792   -1.69095869109986
N         3.50061047968414   -3.99457308915112   -2.34360031068020
C         4.73608257259732   -3.87289477571706   -2.69839201712650
C         5.59882920121778   -2.65675661438046   -2.67607763219316
O         6.78961971364506   -2.63646850407353   -2.96288827099322
H         4.50742619001260    0.55638719021219    0.46426394898499
H         4.02397814474892   -1.00361450950148    1.14812135420273
H         3.38411290877678    0.44888790017717    1.89134425130949
H         0.25923313836807   -2.63074745108324    1.47070949054884
H         0.73789268123260    3.34555909565654    0.27047508235033
H         1.96359558239864    0.04304844847822   -2.17046331439176
H         3.46456860058471    1.94447060274761   -2.11083574014802
H         5.79630619951977    1.63176962779315   -2.24488217165429
H         5.28293918956042   -4.68317113963699   -3.20550193524174
