26
 energy: -46.149421139918 gnorm: 0.224765088411 xtb: 6.4.1 (79825abcba525fcdf90b791dcacef51065a7a4e7)
C         3.78665529228641   -0.02078135756406    0.78759035330511
C         2.46956612848152    0.04093712767097   -0.01693786414566
C         1.38755229676083   -0.98029549875257    0.29410458105543
C         0.63346676781809   -1.97171634584486    0.67943102716616
C         1.91154493992423    1.39026469701949    0.27439456245302
C         1.41999673717292    2.47195061509060    0.43268241361332
C         2.82535737280002   -0.06489518303058   -1.56422993223215
N         3.69021579588354    1.04682092381274   -1.99647416732530
C         5.03602041855330    0.86937911295220   -2.12152503078706
N         5.60552560375693   -0.28262755996652   -2.20913228730801
C         4.79509638709647   -1.39821598847453   -2.13810729839027
C         3.47229422493743   -1.41539092134116   -1.89059525766576
S         2.51565103246795   -2.87030543917273   -1.93071060432123
N         3.60569313613003   -4.05368854681308   -2.33884374709960
C         4.82513850028981   -3.84456287299232   -2.70802327139214
C         5.61504822459666   -2.60711609198255   -2.44612672238249
O         6.83833116322298   -2.63080356085556   -2.50672173246898
H         4.06398199751276   -1.03952731403826    1.08717094923340
H         3.91683027405840    0.65789552593762    1.63772095769099
H         4.62322081903198    0.19605753090337    0.11351401304677
H        -0.06672432828181   -2.76472674196916    0.81186425379385
H         1.07569307921616    3.39124225298586    0.85508516108014
H         1.89181632777169    0.07364710405544   -2.12864637186752
H         3.30722163470748    1.97634853402649   -1.85166112808069
H         5.62292523418504    1.80370033258041   -2.15593512399456
H         5.41965689080781   -4.72794144846464   -2.98900474930960
