26
 energy: -46.148228020392 gnorm: 0.232807464435 xtb: 6.4.1 (79825abcba525fcdf90b791dcacef51065a7a4e7)
C         3.88628702905698   -0.41450196004081    0.68375603227754
C         2.60158777964674    0.02082770264102   -0.05505017807558
C         1.38372065616930   -0.75730176165063    0.41583372322047
C         0.33322298916697   -1.49292387353907    0.65110277969376
C         2.15990905101787    1.40079403371877    0.28781999677336
C         1.85378314907024    2.50193184257602    0.64907000415328
C         2.67995016950360   -0.13256869407980   -1.63689388909904
N         3.45955420576686    0.95596203070078   -2.25174857876798
C         4.81382136851526    0.84050713214184   -2.35636221337676
N         5.55281237325196   -0.20826596642415   -2.24191640395695
C         4.83549327658613   -1.37483291520170   -2.06598328030636
C         3.50352214070521   -1.40294408906473   -1.87512891187416
S         2.55821446889389   -2.86272338147767   -1.96994199888999
N         3.68849026209356   -4.07655993624545   -2.03503787505380
C         4.95083377955875   -3.90437080662901   -2.24459407075082
C         5.64429518273394   -2.59072171276677   -2.37596767394690
O         6.81951199279631   -2.53374267612993   -2.71695568673434
H         4.76078039249459   -0.12566287886591    0.08681775855833
H         3.84437007914518   -1.48763443393103    0.90031907405354
H         3.91308209544824    0.06387429607242    1.66949335959158
H        -0.66833931154168   -1.84340026478252    0.75459618444298
H         1.42692396291267    3.42690792686940    0.97198901135680
H         1.66768966241352   -0.08940357959715   -2.06435639771146
H         2.95135111353717    1.81984807246941   -2.41639196711395
H         5.44348035841356    1.64201548442972   -2.78028600016934
H         5.54439283960753   -4.82461575976710   -2.12798672610874
