26
 energy: -46.155196450956 gnorm: 0.214686778360 xtb: 6.4.1 (79825abcba525fcdf90b791dcacef51065a7a4e7)
C         3.77852758061560   -0.05233947362374    0.75951203887514
C         2.47189236482000    0.02578475726685   -0.06048779296318
C         1.52507933714678   -1.10666360895894    0.30217351900755
C         1.12502351831152   -2.07406801381216    1.07942562271526
C         1.81978346564332    1.33764366541379    0.20545829043058
C         1.30742556453259    2.42042014687844    0.24792690739161
C         2.84455426139781   -0.04354007134584   -1.60587377004787
N         3.77329159747718    1.07138821884345   -1.86103989598753
C         5.11321333443015    0.85464776016581   -1.98732017302681
N         5.67534215171869   -0.30172063631746   -2.06448157871085
C         4.85467095956534   -1.40096444578043   -2.22113226123815
C         3.51857131419953   -1.33875817929283   -2.07169715361399
S         2.39732870738500   -2.67150278723792   -2.05910657506431
N         3.41420374680316   -3.94532304191427   -2.37296504412355
C         4.68513832713578   -3.88627321266436   -2.59276600954257
C         5.56200927922166   -2.68267482920479   -2.51358296440327
O         6.78099179953203   -2.73141470669898   -2.62475862268815
H         4.44207836000020   -0.82355343112997    0.34789163374188
H         3.47905248853950   -0.24491151101441    1.79561076573663
H         4.19723762843868    0.95846458562300    0.69472816017962
H         0.61239497238786   -2.96428366301039    1.36473195405769
H         0.82702611410390    3.33454386505200    0.52299127043055
H         1.95063288715788    0.11909088372257   -2.22532071271789
H         3.38318757078248    2.00809111252781   -1.81539496687580
H         5.80593073383634    1.70104358237378   -1.83780704634888
H         5.18447427006028   -4.86148518401418   -2.70405677507911
