26
 energy: -46.153183457044 gnorm: 0.220740749407 xtb: 6.4.1 (79825abcba525fcdf90b791dcacef51065a7a4e7)
C         3.83969454370824    0.23238789868030    0.91399085803534
C         2.55967172979648    0.14147338415763    0.05429624022626
C         1.72883907713112   -1.00233872708931    0.61271218966446
C         1.00073456362260   -2.07625734685421    0.74155073958451
C         1.85033950737564    1.44322593448771    0.19298728978230
C         1.38886434966846    2.54235202178516    0.06776099728481
C         2.88118492199438   -0.09968779455275   -1.48530473620272
N         3.69787095559004    1.02942475214007   -1.96369438248285
C         5.03815115259957    0.78515767288862   -2.01161080926191
N         5.59329968780575   -0.37648180772322   -1.97243965969279
C         4.79966574520487   -1.50227537130131   -2.06789443784662
C         3.46908729997846   -1.46185856953089   -1.86967683763026
S         2.39089773678234   -2.82427371072044   -1.99167656621475
N         3.42991351187202   -4.00625675760655   -2.51942870616915
C         4.70702927848269   -3.94269758058212   -2.69834099377316
C         5.52425488158048   -2.70041590665151   -2.58564559832164
O         6.73705160843497   -2.68755129022171   -2.75772869979711
H         4.46991303137164    1.10175912820039    0.68701006417576
H         4.47551192218689   -0.63579069420633    0.70838910752240
H         3.53576784592111    0.25157680440235    1.96684424027927
H         0.65957185696266   -2.99120280603649    1.16951620286556
H         0.80794912960053    3.43831234304205    0.02464704694094
H         1.92602696532076    0.04485789775758   -2.01069847697000
H         3.25089933000521    1.92699679475060   -1.80165205026281
H         5.67310760979093    1.68801175546924   -2.02841140987314
H         5.26157701432682   -4.84459862695333   -3.00134548183476
