26
 energy: -46.158330761377 gnorm: 0.227691526478 xtb: 6.4.1 (79825abcba525fcdf90b791dcacef51065a7a4e7)
C         3.86701300181187   -0.32746414214013    0.77829791186036
C         2.58868517589968   -0.03407201297304   -0.03754380474759
C         1.43868677576288   -0.96794435700776    0.30275537929765
C         0.45144385471700   -1.73005040466540    0.68299548068120
C         2.11684758086615    1.34555363131718    0.26403450535805
C         1.69332345500613    2.44754387502127    0.47131189453995
C         2.79256722704455   -0.12939668299210   -1.61274091808327
N         3.49139308237728    1.06897250108624   -2.10900858336699
C         4.83336184796226    0.93417898338031   -2.30715987297065
N         5.54037435125222   -0.14218178910816   -2.28048844957407
C         4.85754709086200   -1.34043374213215   -2.21478623917968
C         3.53257594625160   -1.41701687824844   -1.99129300811078
S         2.53945600343084   -2.83954571995658   -1.83742239702129
N         3.65171274977615   -4.06763587946161   -1.93661673696076
C         4.86636303530185   -3.84722975825587   -2.31492861873401
C         5.63107153684668   -2.58221903413347   -2.51188157611981
O         6.80308744893494   -2.60840206592813   -2.86733500233587
H         4.67120015431229    0.35884503408874    0.48373943564330
H         4.19223960249505   -1.36855313201619    0.67518992422483
H         3.64247014188129   -0.11927393332243    1.83066535546107
H        -0.45231714885306   -2.24102359460132    0.92547035501736
H         1.32775571814134    3.43180235430431    0.67046428857963
H         1.78633122937783   -0.03665863608473   -2.04650068479841
H         3.00965157982153    1.95518469275183   -2.22829812392120
H         5.44888994249638    1.84927285393552   -2.35538674225949
H         5.46518291619466   -4.76496219153574   -2.42420963781508
