26
 energy: -46.151475587423 gnorm: 0.219277006113 xtb: 6.4.1 (79825abcba525fcdf90b791dcacef51065a7a4e7)
C         3.81484290611324   -0.11759270335933    0.74530229685633
C         2.49330803312269   -0.00341625638866   -0.04609393943824
C         1.54003455251419   -1.11358944177297    0.36524845977223
C         0.96217995812920   -2.17370648325047    0.85746047685716
C         1.80841990995680    1.28333842559597    0.25744807445606
C         1.38056227977201    2.38969760401516    0.42957103419566
C         2.86414736315879    0.02113757323772   -1.59327715994827
N         3.76475298745921    1.14983286700711   -1.88599599727225
C         5.09130558374550    0.89720237811165   -2.07240800989186
N         5.62914366999681   -0.25085900199571   -2.30003888664679
C         4.84775643580639   -1.38901967108807   -2.27999192954276
C         3.51916341998682   -1.26736532586162   -2.10278142897771
S         2.44646974237209   -2.63210774795025   -1.96009960111407
N         3.39200878415414   -3.91483673945811   -2.42455872833164
C         4.66844005770450   -3.89922106021847   -2.61834575080589
C         5.53980974373184   -2.70085461485372   -2.44966136662014
O         6.76358944205348   -2.75578050998726   -2.45028186768174
H         4.43373746493637    0.78718432807920    0.69191686285212
H         4.40593331857498   -0.87891562612396    0.22446698626854
H         3.65496804747477   -0.45833228226275    1.77465960231418
H         0.44744739608115   -2.89665503932051    1.44827973043204
H         0.83443037552648    3.29646777093111    0.57645196391291
H         1.91158968065414    0.05695470896627   -2.14155606624923
H         3.44073427825361    2.00393071158644   -1.44191754601463
H         5.78558893729225    1.73817513727857   -2.24367651588633
H         5.14062022547860   -4.81953808401864   -2.99626488475227
