26
 energy: -46.150972505614 gnorm: 0.217877003884 xtb: 6.4.1 (79825abcba525fcdf90b791dcacef51065a7a4e7)
C         3.59795037739995   -0.31306686998091    0.98046940604096
C         2.45781688350327    0.04191658882375    0.00073420625221
C         1.31161239709485   -0.93449520238828    0.20870714925943
C         0.12284371023445   -1.44647465011999    0.05140858949262
C         1.85154769746543    1.36292727263512    0.32371343091822
C         1.51712249962699    2.50089262076089    0.49666939634614
C         2.91353092513290   -0.09152767989832   -1.51795535409971
N         3.75593534673602    1.04492718608903   -1.92972349393154
C         5.06578970465420    0.85981600874643   -2.25885691216045
N         5.62844425629743   -0.27502789232677   -2.49269389419966
C         4.89022632025487   -1.41639309526155   -2.25041853245810
C         3.63866743179417   -1.42067407377469   -1.75549959386058
S         2.71053273592540   -2.86307010460541   -1.45282589444608
N         3.81872963309002   -4.04685711438782   -1.80737910799657
C         4.97707817657111   -3.87340881531270   -2.35071914835739
C         5.62197867562688   -2.60167885262170   -2.78732875717795
O         6.61094246428587   -2.62069830670160   -3.50999249237302
H         4.52670167175803    0.26911243246599    0.92578621655949
H         4.04300084862689   -1.30971788856590    0.88620004426014
H         3.18288529692766   -0.24385897340038    1.99248281726497
H        -0.60665290999753   -2.20038153370741    0.24148943693968
H         1.18877045999917    3.46395993727013    0.82339939279727
H         1.96632663249169   -0.08924204358984   -2.07657648745083
H         3.32853245843665    1.95462929409312   -2.07616722224760
H         5.59369559670155    1.79216017159778   -2.52465230221592
H         5.55759107423245   -4.80764682221549   -2.40516668217150
