26
 energy: -46.156387080192 gnorm: 0.218846021594 xtb: 6.4.1 (79825abcba525fcdf90b791dcacef51065a7a4e7)
C         3.74715503741730   -0.29174521040228    0.90230746520595
C         2.52584325542320   -0.04926412875939   -0.01169425851114
C         1.45216697418580   -1.08489811070304    0.28002295291731
C         0.31571615373584   -1.55318397068419    0.71502255617470
C         2.05722625532790    1.31944154339147    0.34042789189390
C         1.86724367198063    2.47382623239198    0.60123761453950
C         2.78006422543754   -0.13806973942383   -1.57993719024177
N         3.52774659531891    1.00903695139215   -2.12385371840719
C         4.83388071440845    0.89613875585804   -2.49745919903827
N         5.49760193210555   -0.20486864419072   -2.57738046382476
C         4.86107618978339   -1.38133739284995   -2.23513221107556
C         3.54079982627852   -1.40843529588964   -1.97532695225396
S         2.55559665966614   -2.83693301578869   -1.82592584209116
N         3.63752006460140   -4.03745330542969   -2.20454544989318
C         4.89921610163258   -3.84946255296639   -2.40418673523406
C         5.70320534689315   -2.59448083310356   -2.45362226350178
O         6.92614286492149   -2.55490177946042   -2.51287861349564
H         4.47965705807601    0.48738505077806    0.65553066719890
H         4.18308501474307   -1.29392069730929    0.82563129826242
H         3.41858270205948   -0.19578860317592    1.94349546330378
H        -0.54495139535324   -2.17442970638914    0.81490616136340
H         1.55256131521472    3.44976751653130    0.90220244263415
H         1.79960377830205   -0.17277129763839   -2.07667845075755
H         3.16839844476288    1.95598094564824   -2.04741485172376
H         5.26443207800039    1.87248182479115   -2.78026158848328
H         5.47852907769286   -4.73651918639600   -2.70466538012156
