26
 energy: -46.150965079193 gnorm: 0.219396683301 xtb: 6.4.1 (79825abcba525fcdf90b791dcacef51065a7a4e7)
C         3.75305372834312   -0.35814753484754    0.88221656426165
C         2.55482353998765    0.03828680257362   -0.00822317803678
C         1.50818832959239   -1.03890323606901    0.22551560153326
C         0.35329262104743   -1.63625720452466    0.32257704228573
C         1.91659308111056    1.31771657675838    0.40731077413533
C         1.31510229914394    2.29737083340068    0.74673011283454
C         2.83725891344015   -0.00743505025070   -1.57348367559758
N         3.71859835223529    1.09436513511877   -1.99775367142813
C         5.05409006434119    0.86339845842123   -2.14414247219164
N         5.64107454308083   -0.28170853699785   -2.20167293510348
C         4.83493860538578   -1.40226493102188   -2.23126735731657
C         3.53328526816432   -1.33425115711872   -1.89595336863259
S         2.60730622482153   -2.79272761417921   -1.67468216094429
N         3.57223953017518   -3.98145767194858   -2.31576296202749
C         4.81871838061213   -3.84281290906989   -2.62258891086813
C         5.62812172937159   -2.59099336073238   -2.66303313368847
O         6.81307223760114   -2.52743764580837   -2.96718269679451
H         4.65192953423011   -0.12584333270251    0.29693115727005
H         3.81847015888431   -1.43324378976629    1.08261272420506
H         3.86034401481155    0.22714726852262    1.80262879961100
H        -0.22551761893342   -2.45709913455356    0.68016461147439
H         0.94589314044229    3.28520230318760    0.91976130162001
H         1.88489117648097    0.07285524705506   -2.11736595052000
H         3.37296638021733    2.04818594165145   -2.04716350370242
H         5.66227707834976    1.76808236710550   -2.31807648751239
H         5.35395105125181   -4.78456034992726   -2.82107860039302
