26
 energy: -46.150096844748 gnorm: 0.217830556734 xtb: 6.4.1 (79825abcba525fcdf90b791dcacef51065a7a4e7)
C         3.63066353728183   -0.47411818590461    0.90478017918400
C         2.45517186094913    0.01028144402685    0.02763992753933
C         1.12719935689578   -0.64785629796704    0.36492496097185
C         0.28999057103868   -1.62959672266028    0.55281846660062
C         2.19011080262270    1.45183899722732    0.28955899515527
C         1.97518832163627    2.59707422794976    0.57056381923940
C         2.75183367830991   -0.16483197311052   -1.52581676492621
N         3.51600147278174    0.95698056182747   -2.09880201554173
C         4.83494746125846    0.93720423946309   -2.44275516740777
N         5.46976210569786   -0.18075339145526   -2.52220113628272
C         4.78806051676908   -1.37236211509555   -2.37479287556658
C         3.51469453402366   -1.42710213091695   -1.94246736332096
S         2.63975372961430   -2.93042450550242   -1.85273371101314
N         3.82796504259522   -4.08601011510809   -1.94181683335122
C         5.07858188940990   -3.85460998769197   -2.16427029864537
C         5.67859244515572   -2.55331651943510   -2.57711935866834
O         6.84529627893952   -2.55928425281624   -2.95050996191802
H         4.49404987131078    0.18362972299523    0.74219577019370
H         3.73552047208082   -1.53049671384367    0.63396784247933
H         3.35369709865198   -0.35849451160661    1.95889623375520
H        -0.66107561194984   -2.03673976132509    0.81046026856736
H         1.80432610403984    3.56146629718867    0.99813866753593
H         1.77720194178895   -0.22211204083755   -2.03185109391758
H         2.96426835489340    1.80676485536191   -2.02714906507347
H         5.41036992209155    1.86142273768926   -2.62525616713444
H         5.84842882095721   -4.64206878638263   -2.16645106835998
