26
 energy: -46.150650481697 gnorm: 0.235749002655 xtb: 6.4.1 (79825abcba525fcdf90b791dcacef51065a7a4e7)
C         3.96538029641152   -0.18665150549435    0.76363141682793
C         2.64286982166818    0.04644801859463    0.00046082333194
C         1.48275299927780   -0.77357262337289    0.54093519951984
C         0.47566376406778   -1.54448942329341    0.84341715150632
C         2.18401580222013    1.44342931807487    0.23464744908050
C         1.65007551026613    2.47451944912929    0.53210336500703
C         2.69226903627596   -0.25674591243736   -1.56079950225365
N         3.39201455929086    0.92369947414991   -2.09711357877102
C         4.75385537635651    0.90635257328638   -2.15544089419313
N         5.46281808894715   -0.16709420202151   -2.22035968935313
C         4.86717098851561   -1.41215700562907   -2.18293325650848
C         3.54137432869391   -1.46908316262176   -1.95846640105398
S         2.53204384542946   -2.88285989648363   -2.08511167635649
N         3.60714169432613   -4.08546995904424   -2.47633243115878
C         4.87574669145881   -3.87238897687602   -2.58729147594165
C         5.69104060302605   -2.64381195411441   -2.36432056944408
O         6.91522609556599   -2.67116853419893   -2.40003445621854
H         4.63888281666920    0.44090761554996    0.16608152669117
H         4.32849142061400   -1.21967550853578    0.79943094816292
H         3.87983078433586    0.14283966369133    1.80543597996504
H        -0.33566278406066   -2.10465793133917    1.24916596984207
H         1.19762613170993    3.44206963792407    0.56677903859364
H         1.70584395601838   -0.35999278074305   -2.03573572051538
H         2.85831456752264    1.78142853209243   -1.99155738935535
H         5.27219836241827    1.87832872368236   -2.22741568556512
H         5.47380394790809   -4.76212485933468   -2.83920016140045
