26
 energy: -46.148658391928 gnorm: 0.230063989689 xtb: 6.4.1 (79825abcba525fcdf90b791dcacef51065a7a4e7)
C         3.79545216824383   -0.09995481145412    0.87338013658957
C         2.51592724131520    0.04351564368424    0.02013287196845
C         1.56016568394446   -1.02442262034510    0.52653700874914
C         0.84832806959030   -1.99568645989985    1.02650754110499
C         1.82253224990942    1.34541524366877    0.22313030969355
C         1.37211312485023    2.45297538891809    0.13855929950254
C         2.80900669229610   -0.07320337445702   -1.53947661548904
N         3.67856588002155    1.02414670594351   -1.99818949242669
C         5.03196084824531    0.86094869007552   -1.99682333697974
N         5.60881501339522   -0.28969067169648   -1.94784487545469
C         4.87093981775616   -1.45401612141093   -2.02699059103918
C         3.54218334784355   -1.38880749972736   -1.82323381558119
S         2.45340361871886   -2.73624410937105   -2.00358067814474
N         3.46422981226706   -3.91875955348344   -2.58241369259072
C         4.74180939159287   -3.81114293370074   -2.73500182958015
C         5.62128552358579   -2.61569500108154   -2.58923601523240
O         6.78921935115412   -2.74553606197649   -2.93525025895509
H         4.64837092822543    0.53244959663170    0.59571808650194
H         4.17156454769407   -1.12669020527319    0.94137864675080
H         3.48642942846988    0.28192045819258    1.85313323059267
H         0.55238398202947   -2.81696257351751    1.63854861051426
H         1.15959494817341    3.48674650581067    0.30654595196744
H         1.88283211812510   -0.10591049154194   -2.13141383319864
H         3.26791493090222    1.95136845055620   -1.94072160126598
H         5.62152171325515    1.79194735849925   -2.06206843666804
H         5.22122063307748   -4.72275973141677   -3.12471978746886
