26
 energy: -46.153105575020 gnorm: 0.221393697439 xtb: 6.4.1 (79825abcba525fcdf90b791dcacef51065a7a4e7)
C         3.50750802005776   -0.33956159355101    1.03593507977410
C         2.40467275002042    0.01998478914787    0.01599416591446
C         1.25454546076315   -0.96613812093583    0.13922672011957
C         0.53505312642858   -2.01828790216186    0.41372332801109
C         1.93862490657313    1.38270704951674    0.39379647122094
C         1.78686842759784    2.56591967985497    0.51083047173043
C         2.86249944848060   -0.00269668249799   -1.50774495395482
N         3.83443026355641    1.06605174719881   -1.79732250687153
C         5.04992557162703    0.91891005881765   -2.39668372558236
N         5.54047522771111   -0.22193973555113   -2.73866813711116
C         4.82679761464618   -1.35121215697652   -2.38969011701399
C         3.61529667452635   -1.30407438580943   -1.80539032991288
S         2.71679944875461   -2.76314546493876   -1.49335504109847
N         3.58090938902149   -4.03101578864807   -2.12658397151726
C         4.76434869746580   -3.87571743517238   -2.61895363003984
C         5.54171766126824   -2.61024663381368   -2.75350041744416
O         6.74610725455541   -2.66921473122327   -2.96942277185503
H         4.41045802532859    0.24547885390440    0.81934577966440
H         3.69065170171852   -1.41900476366548    1.07505953475837
H         3.21118183313625   -0.06533388743817    2.05487072712479
H        -0.26075560596337   -2.72774817205575    0.41884344515060
H         1.37632501926675    3.47961934920887    0.88321902598177
H         1.98488077355561    0.01241664108618   -2.17017669722877
H         3.49806140740359    2.00710805931981   -1.61581236612817
H         5.52947832088899    1.88353605116001   -2.63777149227424
H         5.25023275673241   -4.76394868154007   -3.05222299489378
