26
 energy: -46.152192648891 gnorm: 0.207631706756 xtb: 6.4.1 (79825abcba525fcdf90b791dcacef51065a7a4e7)
C         3.82199078821520   -0.13526114665076    0.92174661517544
C         2.55096723121420    0.03939849413982    0.06163508838557
C         1.45251832510739   -0.92598947180826    0.47618729292879
C         0.29962111838057   -1.53329360424900    0.52142559652127
C         1.97710307226202    1.37333012221200    0.39065406104924
C         1.47773738907055    2.45954100465410    0.47725056100956
C         2.81576691366405   -0.16633929651250   -1.49382424552181
N         3.56511621500548    0.97422314718299   -2.04909068876863
C         4.92398036575694    0.90234266443260   -2.13054507704007
N         5.56015668384021   -0.21426303060450   -2.21773439930443
C         4.86567898665782   -1.40756274485198   -2.20705129375262
C         3.57615058169356   -1.45522686250962   -1.82468055042966
S         2.59860253879891   -2.88769881699963   -1.98585014274206
N         3.62557636014247   -4.07395788266969   -2.52739813519861
C         4.87137437535765   -3.86435488380001   -2.79409637150794
C         5.66186187004651   -2.62548744029966   -2.54080073104119
O         6.88609321500729   -2.66340401951334   -2.56257096171707
H         4.34891888549716    0.82325161165313    1.01175792292250
H         4.50330123901545   -0.83399231059965    0.42389048900857
H         3.52046862364791   -0.52781755103400    1.89961355602378
H        -0.28907116003710   -2.18411020002114    1.12685998484589
H         1.11163681547135    3.40960662130069    0.80192256074585
H         1.80765888796529   -0.19220849202009   -1.93235333781740
H         3.09093141616264    1.86144454626387   -1.90886268830525
H         5.65386405420963    1.72992453525799   -2.16177820447038
H         5.42686203941659   -4.73890987046935   -3.16738907498390
