26
 energy: -46.151250045221 gnorm: 0.223200830424 xtb: 6.4.1 (79825abcba525fcdf90b791dcacef51065a7a4e7)
C         3.86837529764968   -0.08337340151692    0.81257214237781
C         2.60787472522389    0.11629045404901   -0.05752633741013
C         1.49557366341975   -0.84888224086779    0.31883184357239
C         0.65258834391005   -1.71516842769790    0.80766798873333
C         1.92751906613366    1.42464421621965    0.14807951239520
C         1.16782262445391    2.35065819073075    0.19367076080579
C         2.96161898472570   -0.07344906629124   -1.59725507317864
N         3.74547803726442    1.09471495505202   -2.03507432088487
C         5.08756297682924    0.88734537191052   -2.15389886073729
N         5.67642222417726   -0.25808370528413   -2.17307105426186
C         4.95785427293767   -1.43697050652124   -2.18930700229716
C         3.65984665714264   -1.41704233553115   -1.83414245516263
S         2.51343396013394   -2.72181497527958   -1.70430409602513
N         3.39250231247100   -4.03083162291727   -2.22283498120568
C         4.64005548849268   -3.90908069308080   -2.53245061760558
C         5.57793361184132   -2.74969057399451   -2.53701961566037
O         6.73873013373947   -3.00439671826331   -2.83422359252793
H         3.70362401867386    0.43639511269086    1.76504244234783
H         4.78513737367936    0.33045350217891    0.37833202366821
H         4.12528152983214   -1.12896192708572    1.01747143612221
H        -0.20219360672213   -2.32810535588712    0.98181670137828
H         0.67075111933808    3.28449461293607    0.34511603631899
H         2.03311291465095   -0.17698918738787   -2.17726774382951
H         3.35582557520638    2.02910400769917   -2.11732381676713
H         5.78232317408747    1.74137972093111   -2.23471381997539
H         5.03986830971868   -4.87815230328780   -2.86980849147252
