26
 energy: -46.146121010557 gnorm: 0.225848193787 xtb: 6.4.1 (79825abcba525fcdf90b791dcacef51065a7a4e7)
C         3.56377302858443   -0.33115571965220    0.91351778333076
C         2.38191883862046   -0.01058554865809   -0.02789292893425
C         1.20647200442582   -0.81831596972948    0.49776257590433
C         0.30327179385254   -1.46380854485689    1.18157940938933
C         2.09538019252313    1.45049835228445   -0.01914308425392
C         2.13231829204319    2.63755285886108    0.14289481961039
C         2.72985556211404   -0.24393721176312   -1.56294591127152
N         3.43856771625607    0.93153855137172   -2.09840056894492
C         4.80056121179724    0.90648529480629   -2.14997042810731
N         5.47601917974039   -0.18799258804856   -2.07922259068362
C         4.85301253282864   -1.42002051424356   -2.09786423005624
C         3.52912351514751   -1.51395200159402   -1.87457633350808
S         2.64099856442924   -3.00318454092348   -2.03880851589075
N         3.79060189332073   -4.17133596145682   -2.30147650642995
C         4.99748219276399   -3.81050727536743   -2.58487844666226
C         5.76665995727602   -2.53729725250654   -2.47941042413058
O         6.94703074860021   -2.41646335384922   -2.78400515734856
H         4.52823055293014    0.05730081546878    0.56219861014890
H         3.63466093427792   -1.42271456504208    0.97470668473126
H         3.37844564726697    0.06342921830883    1.91910039245739
H        -0.54127476671287   -2.03776613795756    1.48814980286076
H         2.06303614034775    3.70152221190834    0.21525091656805
H         1.76875578099597   -0.19068562949876   -2.09465094571424
H         2.84229366222851    1.75227401919770   -2.14867449676724
H         5.25596860784361    1.91187038107980   -2.12991078735645
H         5.62533746638056   -4.70361991947174   -2.72947434997346
