26
 energy: -46.157279503371 gnorm: 0.221782334602 xtb: 6.4.1 (79825abcba525fcdf90b791dcacef51065a7a4e7)
C         3.73760595100451   -0.57608778052824    0.87143044296553
C         2.55980412020065   -0.06925979638627    0.01020634749754
C         1.37447957935625   -0.99398332565417    0.23450432662290
C         0.14074345172985   -1.41546171164249    0.21753618096903
C         2.04976168352592    1.27861117823212    0.38443579679998
C         1.54050780876972    2.24062437830096    0.88634236740497
C         2.84641525236617   -0.09372760565442   -1.55477161827022
N         3.64796392077388    1.06463088527173   -1.98657391406495
C         4.93216138727155    0.95869157153479   -2.43146392604026
N         5.58784771275706   -0.14098949130840   -2.57255808268647
C         4.92588881005168   -1.30886071749152   -2.24965746568543
C         3.61381470175892   -1.35882809811851   -1.95414512991845
S         2.67494350998631   -2.77503224175489   -1.57147240443577
N         3.67946181083709   -4.01628223447101   -2.02468479078802
C         4.85567155829513   -3.78679909323920   -2.50524922399991
C         5.67832361351981   -2.54728346905154   -2.60852705711046
O         6.84623842211448   -2.55900585348328   -2.97797472244194
H         3.81239817375255   -1.65342174857163    0.67582980788026
H         3.48702455346329   -0.44003569533240    1.92924360376537
H         4.66546306901362   -0.04403462629333    0.63218056084035
H        -0.77307651626984   -1.93626659286003    0.39179740760465
H         1.12540442664478    3.18254827945376    1.17363099282470
H         1.88244391225447   -0.03964928525824   -2.08116838679470
H         3.23393078360251    1.95569369732489   -1.72916266839252
H         5.41834007079500    1.89413062116743   -2.75884982939718
H         5.41315663816638   -4.66635161282308   -2.86352029805265
