26
 energy: -46.150115384921 gnorm: 0.215040993055 xtb: 6.4.1 (79825abcba525fcdf90b791dcacef51065a7a4e7)
C         3.64890352480923   -0.14413047647105    0.94689058533551
C         2.49826460755744    0.04471487491229   -0.06610804264112
C         1.45004455031762   -0.99938267334163    0.28247833744967
C         0.94934674129772   -2.01454215841609    0.92961796606297
C         1.87561085631930    1.35546667310579    0.26732735977763
C         1.20615450957055    2.30904819013298    0.54880489993651
C         2.88809046764739    0.03287995793511   -1.60876690687924
N         3.82744750747692    1.12349863826104   -1.92323012754695
C         5.12321767937236    0.89751527601709   -2.28131471490242
N         5.60910766061352   -0.25894956525936   -2.57394169331491
C         4.86197727394024   -1.38937765518690   -2.30878870358962
C         3.59069378398867   -1.30280805173390   -1.87553736118467
S         2.58912182342452   -2.72508723684774   -1.78877776644571
N         3.41343908920076   -3.94765638532735   -2.55100197675195
C         4.67915922801846   -3.85287109467227   -2.78773459201912
C         5.56970662948282   -2.68582858044500   -2.52551563618272
O         6.78723558662787   -2.82072270025279   -2.53450431915704
H         4.58065287356257    0.41173202794827    0.78147599436630
H         3.89832304596164   -1.21026379473012    0.90921377647672
H         3.36157418276795    0.26740710592664    1.92122038870824
H         0.21088369576400   -2.72616143956912    1.22106600786564
H         0.74725025049542    3.18233665654230    0.95970676855561
H         1.98823562324162    0.10501279454256   -2.23671346011006
H         3.53374212881666    2.00375129988318   -1.51022973499772
H         5.65615725026276    1.81825621253543   -2.57594837891002
H         5.18261210451428   -4.75532141026965   -3.16836438052819
