26
 energy: -46.152580476682 gnorm: 0.225997468257 xtb: 6.4.1 (79825abcba525fcdf90b791dcacef51065a7a4e7)
C         3.81273881755643    0.22982422686720    0.87715360280316
C         2.57044447988583    0.19505757881135   -0.04006761308407
C         1.76065809771329   -0.99779823656200    0.44134537023573
C         0.94341946093336   -1.99087822912505    0.65570466924557
C         1.69533905517169    1.38854241136570    0.12343032215728
C         0.98072734846152    2.32291491896771    0.35364160040763
C         2.92343524321536   -0.02879363083105   -1.57538152084075
N         3.82416155033289    1.02444542874529   -2.07548899411264
C         5.15619079276592    0.80748557048850   -2.26768658861145
N         5.66793560267979   -0.37270693035356   -2.33396986030748
C         4.89003391412738   -1.50918034310530   -2.23560952612862
C         3.60515105905996   -1.37173357033192   -1.85938194253472
S         2.44220928858457   -2.66739434339693   -1.90818066331288
N         3.39252922603629   -3.97208790045200   -2.29525529285504
C         4.66064303133924   -3.99174578905797   -2.53727803517560
C         5.57599031931715   -2.81775899395699   -2.44943695284726
O         6.79746899711708   -2.88691686213201   -2.38729976258244
H         4.10123299616293    1.27964808147938    1.01551163668113
H         4.57088101108015   -0.43912770384497    0.45526070287169
H         3.49242894716118   -0.20517583305801    1.83078688386138
H         0.43610779092878   -2.80308600436039    1.12434635392668
H         0.40022583989869    3.19107600486992    0.58031434388313
H         1.98601169257975    0.02111863913034   -2.14809839898014
H         3.49164086949162    1.97641689041570   -1.95359864554849
H         5.85182706320576    1.65386593262085   -2.40306723875808
H         5.14311987899350   -4.90066777139396   -2.92949906337154
