26
 energy: -46.154000503376 gnorm: 0.234483948995 xtb: 6.4.1 (79825abcba525fcdf90b791dcacef51065a7a4e7)
C         3.62100269768970   -0.68719192741329    0.87845936890995
C         2.51097884441955   -0.06132025939913    0.00557312023568
C         1.18388800875308   -0.75694632386486    0.26121299439660
C        -0.00292557382750   -1.26743349971383    0.43703431968215
C         2.18742399067930    1.33074799828758    0.42319180672249
C         1.80935004956726    2.44636883866529    0.64493344605604
C         2.77136976054538   -0.11856370857514   -1.56312710982966
N         3.59217425378440    1.04618368892206   -1.93778878696227
C         4.76053523244258    0.88369301380345   -2.62104774483844
N         5.42373599071270   -0.19690804436964   -2.84819675455801
C         4.82210803341427   -1.36337683949100   -2.41951042890556
C         3.57142448872016   -1.37539955907939   -1.92251054546527
S         2.81198141327775   -2.87194393008895   -1.45651389314491
N         3.79403438774613   -4.07455602900003   -2.04341773945544
C         4.95195699202929   -3.81177220494682   -2.55060011837601
C         5.73104680354956   -2.54022223706301   -2.55180426813705
O         6.94284692419250   -2.47615024141529   -2.71940271857713
H         4.63119644742875   -0.50433157384708    0.49042246422656
H         3.52059177555649   -1.77240910917873    0.99022342352787
H         3.56848274302488   -0.22762562164108    1.87207919724413
H        -0.94872220599367   -1.73979827117813    0.57491790572388
H         1.60696970959663    3.43808732958560    0.98786615761947
H         1.84293929607295   -0.14815523553664   -2.15168465321099
H         3.19697252387248    1.93588060257405   -1.64807872627350
H         5.20585787044673    1.78906165480819   -3.06892365740453
H         5.53664217830870   -4.66196822589880   -2.93539925202322
