26
 energy: -46.146853849294 gnorm: 0.224387200616 xtb: 6.4.1 (79825abcba525fcdf90b791dcacef51065a7a4e7)
C         3.52788229797777   -0.36343852615525    0.93088277369318
C         2.40683805652736   -0.02947950623844   -0.07784408790519
C         1.10199627801637   -0.75714392713619    0.20199490089808
C         0.12117267568186   -1.53210880030726    0.57273911551691
C         2.12759119296978    1.41050996095252    0.17788754017476
C         1.82500823965995    2.54869578354286    0.40081287966391
C         2.80996665008094   -0.16181421317562   -1.61142666065574
N         3.62691104028645    1.00435871367404   -1.99006956886847
C         4.96153364180818    0.92834696397507   -2.25712410196133
N         5.56022283330333   -0.20245250362671   -2.40542911226186
C         4.87576102864925   -1.39035095785651   -2.24176204733444
C         3.56839088776493   -1.45523523198543   -1.92881460870750
S         2.65520641142155   -2.93745175320413   -1.87704586275773
N         3.84582534906500   -4.09339814845614   -1.91412021319317
C         5.10340308898372   -3.84073644273714   -2.06154597150276
C         5.71101669804098   -2.58091389469722   -2.57872539738357
O         6.76486703622476   -2.54272224267819   -3.20209916764943
H         4.03023079373811    0.54611597885327    1.28423607042785
H         4.30637028027194   -1.03613470322874    0.55444393186811
H         3.02698096776847   -0.88498344887709    1.75448987074671
H        -0.72920533529416   -2.16832155271349    0.66634573269000
H         1.67137137961153    3.57041486502802    0.67385508289061
H         1.82811638477810   -0.21277898764454   -2.10400296659003
H         3.19823360222360    1.83699547191326   -1.59684112394530
H         5.53053363829658    1.86510869427517   -2.12554172413009
H         5.81820503794969   -4.67792776884213   -2.03106199988759
