26
 energy: -46.152716837293 gnorm: 0.222184011842 xtb: 6.4.1 (79825abcba525fcdf90b791dcacef51065a7a4e7)
C         3.80902689950663   -0.42121492715615    0.68220178622306
C         2.52193486236936   -0.02110788065065   -0.07219011112378
C         1.50337670105201   -1.10922161670080    0.22608024553644
C         0.57529830305296   -1.72724748996654    0.90191401071947
C         2.06856128610291    1.34551083453484    0.30695735059364
C         1.79583506351830    2.51132507638746    0.36367295136842
C         2.71739986758940   -0.06867540460975   -1.65061698772921
N         3.50745326545483    1.04924206700517   -2.19541423455455
C         4.86283074784659    0.91592065544346   -2.13633224331579
N         5.58655783861126   -0.14883644553515   -2.17685354961768
C         4.82170973573944   -1.29825349098270   -2.19186777371684
C         3.48754213679472   -1.34118107240023   -2.02006329849936
S         2.53383034378584   -2.79283396163303   -1.89087582722988
N         3.57185344751976   -4.05495413284776   -2.18194409100183
C         4.83491575256651   -3.83219950080430   -2.33069905642397
C         5.59349994669212   -2.55262400555918   -2.43585731899383
O         6.80775236495515   -2.60170164275760   -2.59024785698572
H         4.74391863503325   -0.09431636619202    0.20932047752514
H         3.90252923882889   -1.51061312583022    0.75104047245207
H         3.77935266085470    0.01933764078757    1.68533326890255
H        -0.11464058225322   -2.52027978820832    1.08011541177226
H         1.51996557265428    3.54099473641912    0.43945299548797
H         1.70602964702642    0.01802841772977   -2.07354899980849
H         2.98580479510050    1.91954844226731   -2.14929903338689
H         5.38006577319285    1.88472678650855   -2.24804647720437
H         5.50937388496864   -4.69493815128184   -2.44709775664157
