26
 energy: -46.154748664583 gnorm: 0.224230729351 xtb: 6.4.1 (79825abcba525fcdf90b791dcacef51065a7a4e7)
C         3.75919975171101   -0.23542062358297    0.82613329271755
C         2.51248669380441    0.06733514976490   -0.03400866863397
C         1.41189303748520   -0.82787583639358    0.51161787806824
C         0.61899194309269   -1.71824409151919    1.03943317762405
C         2.03632230337273    1.46420799838066    0.16337634761743
C         1.65101708823413    2.59288434099872    0.28316246033104
C         2.76960273705784   -0.17726414643209   -1.58512541686079
N         3.48743421728930    0.99408881141160   -2.11745811483973
C         4.83611135842036    0.89391312334225   -2.28877128430718
N         5.50600715766803   -0.20217698641648   -2.19413169728997
C         4.85105195902965   -1.40598508471777   -2.02603245215614
C         3.51532343193536   -1.48325752704705   -1.88035805203744
S         2.53306620822718   -2.90556857317444   -2.09425928792037
N         3.63274397310361   -4.03819951339418   -2.60711014174833
C         4.91011787705015   -3.85059786860424   -2.59312454514673
C         5.68471647196838   -2.62503657865663   -2.24409982769753
O         6.90486821969578   -2.65601627807214   -2.34861763792780
H         4.64577604001263    0.03348690611150    0.23776845016891
H         3.73571849950471   -1.31111472048114    1.03253274010769
H         3.83274212142713    0.29937828931700    1.77997894988722
H         0.05227224395967   -2.28676858800916    1.74106007729883
H         1.26936675986826    3.59046734588659    0.31833888853670
H         1.77688190714727   -0.23786157187931   -2.05426513898736
H         3.05839311195083    1.88803312422838   -1.89731220701095
H         5.35899566284433    1.81736670032649   -2.59278272445877
H         5.54425762309724   -4.66997586124774   -2.96628255883239
