26
 energy: -46.154123555431 gnorm: 0.210690815026 xtb: 6.4.1 (79825abcba525fcdf90b791dcacef51065a7a4e7)
C         3.77764969888270   -0.04976171802040    0.98566052251071
C         2.56943821558612    0.01381143658883    0.02546149636825
C         1.56180810187722   -1.08557373724206    0.31948741504027
C         0.44529793971393   -1.66092324444495    0.66936565046322
C         1.85430870552167    1.30440306771375    0.22523679796012
C         1.17412412419848    2.29009218373922    0.27508678436276
C         2.96282083194876   -0.02166828866523   -1.51593136731249
N         3.82533059710816    1.13068963578316   -1.83037690142221
C         5.06598749660440    0.83973010022568   -2.31455290382326
N         5.66998320104449   -0.28330183990594   -2.49653919004404
C         4.88682452026938   -1.40821997425165   -2.33040891202998
C         3.64458928237868   -1.36138740839935   -1.81463661199555
S         2.61346101432192   -2.74643476624127   -1.58666728976955
N         3.49229118070924   -4.03490060557706   -2.15471072507470
C         4.69063886913554   -3.91202956640981   -2.61940371988832
C         5.56260902053197   -2.70248510189717   -2.64158331315898
O         6.75089083255216   -2.78796089018071   -2.92677484951256
H         4.42328279097445    0.81508199548627    0.78639882353994
H         4.38968091824753   -0.94146541876714    0.81086868785377
H         3.39350085743632   -0.09618051688098    2.01109450966351
H        -0.16608974384786   -2.53304269747333    0.62157030711842
H         0.64165959414061    3.21217292814593    0.36627251133565
H         2.04700813687417    0.07656877080698   -2.11667703203841
H         3.52649101870984    2.10047673973661   -1.87379116305626
H         5.58911896222115    1.73037510167990   -2.70401716333782
H         5.21878486001784   -4.84745741042531   -2.86188458483608
