26
 energy: -46.152682526709 gnorm: 0.231205881290 xtb: 6.4.1 (79825abcba525fcdf90b791dcacef51065a7a4e7)
C         3.99532622565354   -0.10557248241951    0.79591952334311
C         2.63368898709987    0.00836552682641    0.07566899160725
C         1.59931953023606   -1.05725669986304    0.39962346861372
C         0.55386658768053   -1.80767503642537    0.60923551552621
C         1.89720865175569    1.27856588819844    0.32292363831230
C         1.39662639723947    2.36443567436133    0.40672880585978
C         2.78222873158689   -0.07888854207023   -1.50617275257908
N         3.65511461564288    0.98146698156600   -2.03950592659290
C         5.00513352165985    0.89696705774230   -2.20868661920614
N         5.60213021053709   -0.23876106280892   -2.32203186662702
C         4.82127796104231   -1.37715612895742   -2.29549836335980
C         3.54701829565124   -1.35827424361453   -1.86275304473786
S         2.54115819487148   -2.77765192165526   -1.77811167612859
N         3.46215882301502   -4.02221041299577   -2.37643602633989
C         4.71699420317697   -3.87500683113015   -2.64250617714904
C         5.56424873603866   -2.66174000929230   -2.45821006363137
O         6.78759579370163   -2.62672177502696   -2.51159252705291
H         4.59705064875364    0.66393766958144    0.29563579991575
H         4.48044254620619   -1.08703790099603    0.75520505729456
H         3.87649097607588    0.14831514069469    1.85547563340138
H        -0.30326471084785   -2.42977488983962    0.73166641124507
H         0.91771909019644    3.31677419905827    0.48265852378022
H         1.80009880624897   -0.01082679562267   -1.99611883806369
H         3.21669452017557    1.88768383463844   -2.17454576187421
H         5.63955607789854    1.79510903299569   -2.30587955098173
H         5.25920933616499   -4.78249303017951   -2.95110292582882
