26
 energy: -46.150778402732 gnorm: 0.217825413942 xtb: 6.4.1 (79825abcba525fcdf90b791dcacef51065a7a4e7)
C         3.61858372536589   -0.30905978534806    1.01213530556605
C         2.42733819720300   -0.01919117392681    0.07260938182365
C         1.34372252134676   -1.05869013815524    0.30848303312960
C         0.41274187880759   -1.86463793806752    0.73715532865729
C         1.80874048518449    1.33286879135882    0.15146259967354
C         1.38277435971979    2.45249083377787    0.11000853010812
C         2.94524302277222   -0.03448609851823   -1.43186437591660
N         3.84787345553820    1.09909043976502   -1.69830462595631
C         5.10164143616302    0.93260484516393   -2.20689266132774
N         5.61122278466173   -0.19025322475586   -2.57924620369671
C         4.87412653556533   -1.33884823137281   -2.36997072494518
C         3.64031065979147   -1.34039172728921   -1.83232888873886
S         2.69985286749430   -2.78497697596689   -1.58280073688214
N         3.57611032114451   -4.03918046735713   -2.22646719045823
C         4.76791118629450   -3.86637236538697   -2.69210880733367
C         5.57223759069545   -2.61095881136889   -2.72070147096619
O         6.76992921249898   -2.62444124398565   -2.97761974322059
H         3.49348880070381   -1.26649617912467    1.53383327333832
H         3.69371061675395    0.48137029071196    1.76701684023473
H         4.49739360727477   -0.38556864882328    0.36168970391372
H        -0.38577246743301   -2.56713086880890    0.81165459252424
H         0.87556665397022    3.38605569685400   -0.00515739420245
H         2.13995792107203    0.02442802413240   -2.17839220457041
H         3.66443685009664    2.01172129213349   -1.29193919979902
H         5.62887412606131    1.89462475102969   -2.32994081331861
H         5.42339394996284   -4.69585654391584   -3.00042480876396
