26
 energy: -46.155443863751 gnorm: 0.226988740899 xtb: 6.4.1 (79825abcba525fcdf90b791dcacef51065a7a4e7)
C         3.64674916602601   -0.05654112822812    1.03713472363438
C         2.45013300565927    0.11404813115748    0.07546547889152
C         1.27788587705240   -0.76919225418109    0.47061164640550
C         0.39757629326490   -1.66480569756783    0.82128006618037
C         1.89771761064841    1.49623489705681    0.11212709754863
C         1.54526436921010    2.64054747708730    0.16730429718677
C         2.84482856975664   -0.18012176437654   -1.43767036713664
N         3.65346690328619    0.95850701141665   -1.90709174929885
C         4.98599765817968    0.81419313228709   -2.15578571371582
N         5.59153657233738   -0.30768677364506   -2.33973859210440
C         4.82338456878413   -1.45467378927082   -2.36695791384812
C         3.62843029808611   -1.46023820642053   -1.74775191420759
S         2.70789595913184   -2.93867810505079   -1.72816368793939
N         3.67257466216422   -4.15320722177044   -2.31932699000974
C         4.90672140093494   -3.94885289371347   -2.63900681877494
C         5.62965470149616   -2.64971020998865   -2.75484043452499
O         6.77862447949536   -2.58870282540260   -3.17531699726606
H         4.44156084624987    0.67576272066502    0.84606557391371
H         4.11152655479243   -1.04107579229297    0.91489170069706
H         3.29455723294368   -0.00432677848510    2.07370329124869
H        -0.37250677921030   -2.33568912110639    1.12715440043421
H         1.15038734059113    3.62337043789027    0.30942170323476
H         1.90851611023351   -0.23676695972926   -2.01157720861068
H         3.25373201347242    1.87976212684288   -1.75484867391082
H         5.60393974664420    1.72887495876726   -2.16589457656422
H         5.53469005921244   -4.83314088157265   -2.82992703450729
