26
 energy: -46.150762052351 gnorm: 0.215301766710 xtb: 6.4.1 (79825abcba525fcdf90b791dcacef51065a7a4e7)
C         3.66757981777505   -0.28389005450963    1.00552399050990
C         2.47534344069377    0.01457192458842    0.06995380744932
C         1.33883083880538   -0.97818271051369    0.25214815904279
C         0.16101696470867   -1.51762993392764    0.39975555169531
C         1.92734625330929    1.39050939962809    0.22306254655555
C         1.32491839536348    2.37633394870495    0.54235825806599
C         2.94037791619403   -0.04630579610260   -1.45055186251994
N         3.77608093173919    1.09306279825501   -1.86788572795628
C         5.11657430308022    0.88923315632903   -2.00875587104355
N         5.59834868376890   -0.23776169037728   -2.40487027674103
C         4.86441384819259   -1.40153086910451   -2.28929102697079
C         3.62009439227770   -1.38062008655352   -1.77685118865562
S         2.78164933982419   -2.88359304110758   -1.50920608713920
N         3.75826571612267   -4.09827351124999   -2.08011048811661
C         4.86557613654118   -3.91900312165630   -2.71948504166226
C         5.52240167027837   -2.59282047746256   -2.90290126618426
O         6.57987505795903   -2.52949202063463   -3.51803827270453
H         4.60901077914697    0.08674094303645    0.58026833853670
H         3.87190798191289   -1.36022656800747    1.00995121738115
H         3.57737485745679    0.13447871277529    2.01451880437228
H        -0.60595901808587   -2.25799507450797    0.41645675553984
H         0.90149234208067    3.34827714030970    0.67690572525915
H         1.97154688747830   -0.05654064636559   -1.97066767470530
H         3.38821265234758    2.01767630113358   -1.70563594811261
H         5.81801928671007    1.73699744388271   -1.92005353071177
H         5.47544509376810   -4.78787717585648   -3.01253476921001
