26
 energy: -46.152193004010 gnorm: 0.223496509875 xtb: 6.4.1 (79825abcba525fcdf90b791dcacef51065a7a4e7)
C         3.87532594428729   -0.32866610087787    0.63796428340117
C         2.56746230042637   -0.09671017166670   -0.15038070621408
C         1.49341598250448   -1.05919146331501    0.32969395571942
C         0.51638396541423   -1.79162143984739    0.78684985300671
C         2.04352206171960    1.26657412343447    0.13925644958875
C         1.77597224781221    2.41966778740528    0.32770062065992
C         2.76981015760501   -0.08142734508835   -1.72858297989764
N         3.53189456855409    1.09743874231366   -2.17605362476769
C         4.88585924099539    0.96750977695895   -2.08543615548636
N         5.52314551348412   -0.15168888994433   -2.10521254335944
C         4.83688322787233   -1.34721825018312   -2.18351460106483
C         3.49789872342569   -1.39007192238271   -2.05449213848596
S         2.48766782554295   -2.78685771086866   -1.80554497232888
N         3.56623109950911   -4.02194586286088   -2.06326293201931
C         4.78811030663392   -3.81468245132331   -2.42537773715455
C         5.62493158434471   -2.58133158716203   -2.47434181840472
O         6.83842194267467   -2.61832674401586   -2.63782420375086
H         4.67692073104391    0.35099419729139    0.32172128393516
H         4.24771735048504   -1.35584000551677    0.55729028177444
H         3.68736536413474   -0.03615566090625    1.67736235896512
H        -0.17330834526233   -2.45987986482472    1.24991227890570
H         1.49120923604277    3.40784921742401    0.61834420507798
H         1.77232379917778    0.03628365167102   -2.17627020008186
H         2.97233954998814    1.94368276759570   -2.12659500578542
H         5.51240277226082    1.85918577654643   -1.90949704645569
H         5.37779695741102   -4.72416542616029   -2.61998190262860
