26
 energy: -46.151055422481 gnorm: 0.222730542219 xtb: 6.4.1 (79825abcba525fcdf90b791dcacef51065a7a4e7)
C         3.79618767524954   -0.52004214342323    0.69731532079387
C         2.53070805331356   -0.04852688426338   -0.05237354228820
C         1.30405963077915   -0.91728237688580    0.17349145243287
C         0.07613773327743   -1.28604459324180    0.41068129301568
C         2.08784974833899    1.25574496031699    0.51304543173901
C         1.52040087509969    2.26013294823202    0.83850765982692
C         2.77882311937763   -0.04632713256329   -1.62410339444280
N         3.62589672268434    1.09738220618137   -2.00505370779197
C         4.96800035162215    0.93886647329714   -2.18378257136698
N         5.49888752794623   -0.20235632094698   -2.45746102532110
C         4.83434103742438   -1.39859764760425   -2.27371595569890
C         3.52974324627635   -1.34257044710073   -1.94775844813465
S         2.71022051475178   -2.85039879355480   -1.65045746443596
N         3.75134696320230   -4.07462421032379   -2.06577405515744
C         4.95433497052126   -3.87024588018760   -2.48782074121254
C         5.67126254471441   -2.57370131437236   -2.65755208724565
O         6.83509458632595   -2.50501265359827   -3.03362499417414
H         3.95219720618544   -1.60620708055138    0.67709859611494
H         3.72990814527216   -0.15686647551784    1.72880955212053
H         4.68100474163207   -0.01740964784453    0.29025361608879
H        -0.81714458175855   -1.85854899417636    0.51535721972988
H         1.08537354040032    3.15697612105356    1.22385133940044
H         1.81677787119097    0.02573031551947   -2.15186795073772
H         3.11097615046602    1.95282502122393   -1.81863665133547
H         5.61572654003228    1.83183759385393   -2.14315231001937
H         5.59964769557871   -4.75468204124832   -2.60658340861873
