26
 energy: -46.150854199056 gnorm: 0.221463584277 xtb: 6.4.1 (79825abcba525fcdf90b791dcacef51065a7a4e7)
C         3.79775901679818   -0.01649395150343    1.12825164393690
C         2.61143395507694    0.02178330983732    0.13983554451448
C         1.53685544082577   -0.99414753111097    0.49137924488870
C         0.41456366913077   -1.61130859905832    0.73553116271792
C         1.95718893719857    1.35036671409097    0.29403259238644
C         1.43802981436249    2.41382858732059    0.48440528788568
C         2.90342496723422   -0.11503446201130   -1.41834376940423
N         3.67994366340880    0.99149698982241   -2.00429148801079
C         5.03106831409757    0.83830990570303   -2.10077615553769
N         5.62902837097092   -0.30243543613625   -2.11734110486973
C         4.85653897309119   -1.44649593666328   -2.08971303793036
C         3.53964838161824   -1.45261987641012   -1.81200019827841
S         2.54614400183514   -2.87039778008709   -2.00280524046818
N         3.60095565641479   -4.08634742023580   -2.40777298418677
C         4.85301747080184   -3.91029231153578   -2.66934491034615
C         5.57717515136207   -2.60687351709651   -2.69207821317385
O         6.67298679184167   -2.53510499923638   -3.23494110942679
H         4.44981057546898    0.82438485541073    0.85945142460442
H         4.42413216756684   -0.88692209064227    0.90401646033268
H         3.47037323988160    0.07260479533183    2.17042238826980
H        -0.31807895170037   -2.34325240842512    0.98883863569158
H         0.79370564108323    3.26568631201989    0.51977457193433
H         1.90092894129006   -0.12579374563199   -1.87016754635040
H         3.32696041749183    1.87419385014583   -2.36195892899050
H         5.72793128559474    1.68549752638889   -2.22427753778428
H         5.44822339801626   -4.80869412516198   -2.89598228079724
