26
 energy: -46.152072003229 gnorm: 0.215438397337 xtb: 6.4.1 (79825abcba525fcdf90b791dcacef51065a7a4e7)
C         3.72941372269103   -0.26825693973759    0.78992215267477
C         2.47148651209647   -0.02337658456191   -0.07231415780863
C         1.40216143035333   -1.03867311521631    0.29664962787891
C         0.19505505351836   -1.34473179425432    0.68299023113508
C         1.88125982547717    1.28064123806003    0.33770670853324
C         1.54108274277398    2.34447991778382    0.77273076493185
C         2.88732270291318   -0.07317246742464   -1.60740414543439
N         3.72918998243326    1.09433251843519   -1.92191879551754
C         4.95345928819444    0.86196194728982   -2.47462303653767
N         5.56257275952671   -0.25082211986391   -2.69783360213706
C         4.88935666314190   -1.39182191672794   -2.30888997166130
C         3.58183072433306   -1.38471974293071   -1.99000407526020
S         2.61165562888537   -2.81690156515989   -1.78710704252649
N         3.66508719335020   -4.02574232946402   -2.21622936944390
C         4.92463393962137   -3.92705281673873   -2.48245564818882
C         5.68615466263675   -2.64508588166078   -2.46080706436486
O         6.90754269993659   -2.65135159270284   -2.55475382865882
H         4.48045781692835    0.44487916600283    0.42678081904047
H         4.04061640113246   -1.31686229143342    0.72787700464554
H         3.50796957249309   -0.12504322471031    1.85373238933533
H        -0.55187118019372   -1.99339698807458    1.08049029825794
H         1.03659365858884    3.12395016688851    1.30186506223443
H         1.96134646364627   -0.05347895429259   -2.20022699948359
H         3.28202397980659    2.00272545349182   -1.84103763773785
H         5.40739890720644    1.79152210918983   -2.85992056543279
H         5.55326467164577   -4.79079833015577   -2.74990190541146
