26
 energy: -46.151195003797 gnorm: 0.228183200955 xtb: 6.4.1 (79825abcba525fcdf90b791dcacef51065a7a4e7)
C         3.69356227861482   -0.13594869608365    0.87722516499853
C         2.49357130102490    0.06929638221176   -0.07340347662660
C         1.53079165241497   -1.01116439888886    0.39143765959588
C         0.82145880873454   -1.94174548047290    0.96667894065956
C         1.82944600844565    1.38238641527553    0.15392731883772
C         1.28513088137475    2.44932566635486    0.10831164972039
C         2.87218130403193   -0.02988339353427   -1.61571293782080
N         3.74377798925208    1.11330320750328   -1.93846901616350
C         5.08665302414194    0.90832626183035   -2.05241850318535
N         5.62223730104575   -0.25936793779611   -2.14606833857715
C         4.85836394847315   -1.40915044726996   -2.17565337944033
C         3.52982226897006   -1.36968182820111   -1.96403587507008
S         2.51945821789574   -2.77885426929107   -1.79987373211554
N         3.49844398506007   -3.97214935037640   -2.41044211037066
C         4.75005160911349   -3.83603484268309   -2.69684262255802
C         5.61998830136697   -2.63169408487204   -2.56802031328057
O         6.81401391910522   -2.80281011321824   -2.78174002021253
H         4.28187910416563   -1.00153119924936    0.54684325608406
H         3.28526104918883   -0.49384014108217    1.82878898912591
H         4.40494780489002    0.68074545100070    1.04509772569083
H         0.34974141342013   -2.80731330979891    1.37281519490496
H         0.86897281920210    3.40518592215641    0.34327940946630
H         1.91935128501411    0.00219057829029   -2.16375032602288
H         3.41493758035786    2.06983020852365   -1.84574900097697
H         5.68557514365380    1.83455377910895   -2.00778290945908
H         5.25980625709612   -4.69134063670279   -3.16733450271927
