26
 energy: -46.153732142752 gnorm: 0.224277736440 xtb: 6.4.1 (79825abcba525fcdf90b791dcacef51065a7a4e7)
C         3.69867140737244    0.06655528370551    0.95365421623294
C         2.49030277544681    0.01064390779343   -0.00682371662545
C         1.52184793184733   -1.06396715563558    0.45978500655577
C         0.66412723748982   -1.82421922993061    1.08137068208660
C         1.81173902807233    1.33420029095033    0.06171008746412
C         1.57048456194124    2.50646004419353    0.12745559454901
C         2.78089369597203   -0.11894852988306   -1.56588219780612
N         3.63670439419950    0.93237192153760   -2.14297945067823
C         4.99699834883002    0.84369957476168   -2.13584021632985
N         5.65784034529939   -0.26192652191174   -2.13278213934354
C         4.89516905747668   -1.41261704286301   -2.15771065048672
C         3.56343477150246   -1.37418225102867   -1.96700328902493
S         2.53897413032478   -2.78135729447937   -2.02937712074519
N         3.56818888660786   -4.07126361293048   -2.20831482252651
C         4.83838343670942   -3.93981750939263   -2.39910733258867
C         5.62653812820375   -2.67588514061157   -2.47058349439229
O         6.81311941582694   -2.68313911087161   -2.77492904997353
H         4.18523807538942    1.04668674652376    0.86940961314681
H         4.37673787477912   -0.73429061699531    0.63878662611742
H         3.41010427749118   -0.17016355367759    1.98415559858023
H        -0.05655856788117   -2.55208937605918    1.37715547404056
H         1.23666027908037    3.52032396707982    0.17948928956266
H         1.81599325383915   -0.03782210055687   -2.08707736486267
H         3.08382480496050    1.77057444605517   -2.29600759444013
H         5.54160080502764    1.79355491727194   -2.27648320796379
H         5.46710678731569   -4.83073203384247   -2.55318091658625
