26
 energy: -46.153687837159 gnorm: 0.218676407648 xtb: 6.4.1 (79825abcba525fcdf90b791dcacef51065a7a4e7)
C         4.05360570086867   -0.18585631191791    0.66718707628382
C         2.67370821354836    0.00309187785288   -0.00063041689809
C         1.61703712269377   -1.06475145030854    0.23083078316531
C         0.75504333463493   -1.80167452495504    0.87421859068256
C         1.96871196972382    1.24415423551236    0.42327010806686
C         1.35796236278431    2.24025503206744    0.69064107248098
C         2.78700812845804    0.00300514288301   -1.58778629161105
N         3.61245324159464    1.07722818819123   -2.16693488525983
C         4.96354499564783    0.90315132109170   -2.21754824469904
N         5.52561396523895   -0.25180919951795   -2.12124027174023
C         4.76130253731351   -1.40161741925981   -2.13335211490290
C         3.42189993693651   -1.31999188890058   -2.02990799694958
S         2.45236414831703   -2.74710557413558   -2.26844222660464
N         3.52747875266850   -4.00947998598906   -2.34393695187326
C         4.81528988961710   -3.91666205237277   -2.34510189106432
C         5.58358368369955   -2.64198697519584   -2.25156165028194
O         6.80218080750443   -2.56430768618464   -2.34975005782147
H         4.47628077765066   -1.12739874308811    0.29389685120262
H         3.89272505518042   -0.20315249736307    1.75074055892152
H         4.69176259940789    0.66809095236235    0.41268807667393
H        -0.15377606863322   -2.30750701836081    1.10842451329934
H         0.74934967670700    3.06644749863456    0.98907500845774
H         1.78967953535556    0.18047307808089   -2.01568764853327
H         3.16645379879557    1.98881039792518   -2.20911656623587
H         5.61190309804048    1.77590906728822   -2.40865853482473
H         5.36372390311882   -4.87132411021268   -2.36961499162362
