26
 energy: -46.151136420977 gnorm: 0.225962195303 xtb: 6.4.1 (79825abcba525fcdf90b791dcacef51065a7a4e7)
C         3.91061461812248   -0.04170555699679    0.91472559079937
C         2.60904683528065    0.01911920984370    0.08525567002786
C         1.71618015986402   -1.14376956089412    0.48637438796287
C         0.69135558593018   -1.92202430576248    0.69635272229295
C         1.94765069599716    1.31857940819574    0.38676098322757
C         1.35819039957024    2.32848456288187    0.65009962110439
C         2.85865735090753   -0.06770879435073   -1.48383837521613
N         3.73440936291341    1.06997083861894   -1.81470292380488
C         5.00457577002587    0.86509985460020   -2.26527875426532
N         5.64500750126511   -0.24967173523427   -2.18614555331398
C         4.85550956690923   -1.38090174814388   -2.12792808304081
C         3.52442271251281   -1.37437186808752   -1.92911183897053
S         2.46704272848248   -2.74768735758897   -2.10087864609618
N         3.39979779312562   -3.95868982960849   -2.74787248741508
C         4.68309203997181   -3.82227563372625   -2.78813538132300
C         5.55312204127990   -2.66692843495722   -2.42475906932998
O         6.76913005450391   -2.73176810589454   -2.29143868524767
H         4.60354266651614    0.73002525665022    0.55586039124544
H         4.49036332758938   -0.96183834268467    0.78237387315775
H         3.58663946302434    0.05515581544270    1.95726953357640
H        -0.07475616612127   -2.65642888960987    0.79830521834641
H         0.96200095906416    3.31844182912132    0.72140699018281
H         1.86911900911311   -0.02392650313559   -1.96149489272056
H         3.22062371212217    1.89721205866586   -2.10344709125645
H         5.49511852237148    1.78165314496141   -2.63662136422123
H         5.19091617356076   -4.60696369664871   -3.37049240838790
