26
 energy: -46.151986869189 gnorm: 0.219551009612 xtb: 6.4.1 (79825abcba525fcdf90b791dcacef51065a7a4e7)
C         3.90462526275835   -0.31908403628953    0.73513738812305
C         2.55505117101731    0.01318860492932    0.06130999588080
C         1.43188168646764   -0.92666938941760    0.46821870592521
C         0.25694874876330   -1.49121005324597    0.49759899187406
C         2.04945166130786    1.37860236104885    0.37269645909380
C         1.59208296788266    2.41627007284562    0.76099879172702
C         2.72398135988220   -0.12215411131206   -1.51509273906864
N         3.50235059917453    1.01513017643466   -2.03610488720423
C         4.84764662258983    0.87091746530468   -2.20252213250370
N         5.49846075666640   -0.23111478813388   -2.34776824065929
C         4.83138548384886   -1.42662387813851   -2.16847464804188
C         3.53379451655541   -1.38871813602083   -1.81325138416578
S         2.61663264542716   -2.86923661454529   -1.83400810029782
N         3.68533867755550   -4.01926919557465   -2.37294455304314
C         4.92266982540970   -3.88988245095115   -2.71840764916690
C         5.66502712858010   -2.60965961659911   -2.53467739670086
O         6.86860334441736   -2.48215261571539   -2.72388691003268
H         4.79260263821501    0.17536928931246    0.32099484458536
H         4.04149462624571   -1.40325798359739    0.81326239022573
H         3.82356835524189   -0.01336882049158    1.78452191331599
H        -0.53850074596175   -2.18288544409356    0.65733904324318
H         1.32183545384155    3.42266285446863    0.99807695093157
H         1.76853645369457   -0.28620954180139   -2.03419736252445
H         3.22764323958670    1.97406235554693   -1.84463200174775
H         5.40416990537731    1.78191098533743   -2.48353832544065
H         5.42576120087570   -4.80102688916604   -3.07823438523158
