26
 energy: -46.152087958657 gnorm: 0.212168501669 xtb: 6.4.1 (79825abcba525fcdf90b791dcacef51065a7a4e7)
C         3.79170855011288   -0.09154662903602    0.82241262208630
C         2.49904978599886    0.01734304597546   -0.01602345593022
C         1.50292288686659   -1.08536661049880    0.30363269342792
C         0.94398937863702   -2.12298254968587    0.86129143148506
C         1.80923374770843    1.32238979942291    0.17879426446402
C         1.38090970925164    2.40644778525324    0.45821494626769
C         2.82581515149837    0.01170617924803   -1.57329455358159
N         3.76127495994246    1.12000281072738   -1.83275824003631
C         5.07245389360102    0.88027593147165   -2.11851027066741
N         5.61705937430978   -0.28330882385617   -2.21127851365394
C         4.80544778377155   -1.39887598517104   -2.15493901144009
C         3.47009189870806   -1.30710292060556   -2.01435055324834
S         2.46860880309976   -2.73189798229807   -2.03763883350877
N         3.47720896444005   -4.01686456923706   -2.33216661028660
C         4.76339352463479   -3.91819180293444   -2.38754730056139
C         5.56722294561389   -2.66213930891743   -2.38406956685365
O         6.71533808720854   -2.59759993383004   -2.80634943643533
H         4.08989432219446   -1.12405149750422    1.04494554453249
H         3.70193528664329    0.43950498265296    1.77645393905629
H         4.67201667978867    0.30364499950554    0.30268089447153
H         0.27882113883094   -2.95591826494000    0.84029288815181
H         0.92760881326192    3.37400438886895    0.47867776414221
H         1.89204943066501    0.10551512871438   -2.14647884051929
H         3.45146644472986    2.08591931141124   -1.78078787817382
H         5.70429144258151    1.76730938688871   -2.29892761724733
H         5.40209940814195   -4.80044105307616   -2.55018637134884
