26
 energy: -46.150153135533 gnorm: 0.221687808295 xtb: 6.4.1 (79825abcba525fcdf90b791dcacef51065a7a4e7)
C         3.66201241866620   -0.34518110987150    1.01850526415897
C         2.47313690725891    0.01691775339788    0.10130402638940
C         1.33179048119007   -0.96360991550401    0.31650446554179
C         0.42923575248754   -1.79179215728982    0.76321005300479
C         1.99048394928261    1.41942643680333    0.23154464905302
C         1.37807517898999    2.43427417808600    0.40975423839675
C         2.95343601135130   -0.02007329779949   -1.41521997485683
N         3.81242200279362    1.11654351369735   -1.79068388372082
C         5.06056722574339    0.92493763886277   -2.30423434474861
N         5.55191602451911   -0.23815526460469   -2.55903192666594
C         4.79863897749116   -1.38812627459578   -2.43050968883667
C         3.57341707687277   -1.34401523797038   -1.87530860511301
S         2.64613226370801   -2.81117065313570   -1.72987974469092
N         3.61628878487143   -4.00242612708494   -2.35826397744963
C         4.82825792277177   -3.90856240634272   -2.79345872608698
C         5.58746642744924   -2.62955303464204   -2.68594514713516
O         6.80853583669079   -2.59240106685793   -2.77684740871683
H         4.42437428739211    0.44429582571264    1.02420672580391
H         4.02512679639203   -1.34672344903728    0.76290640483308
H         3.23336270718004   -0.46784783402269    2.01973061150503
H        -0.26117445827345   -2.56358939369491    1.01685228752484
H         1.08389728955272    3.42451692978087    0.68351483374031
H         2.01494354067423    0.03585069106626   -1.98562610604221
H         3.41894879438815    2.03673549409708   -1.61718325122239
H         5.69279665846708    1.79080008504477   -2.56722792182343
H         5.35220966587412   -4.79944237432911   -3.17367953174125
