26
 energy: -46.150274739801 gnorm: 0.217571113409 xtb: 6.4.1 (79825abcba525fcdf90b791dcacef51065a7a4e7)
C         3.80344345621363   -0.25402707080120    0.93513496792462
C         2.55413766988542   -0.02458915513803    0.05627662645012
C         1.36146830611364   -0.80645595691892    0.58224385382640
C         0.14331375748036   -1.25498243918102    0.70455598393480
C         2.10417705212111    1.37396262829125    0.29821770777598
C         1.99082402244765    2.50813964326320    0.66904476211152
C         2.73387155182730   -0.24595477035179   -1.50916056936950
N         3.33488505258624    0.86182467658177   -2.27226956282988
C         4.68667685672426    0.85914649086550   -2.44823870571771
N         5.45851728340986   -0.17156681995663   -2.41625460805147
C         4.86847058767898   -1.38675023939590   -2.13068194474621
C         3.55990896496859   -1.49504699475493   -1.83521447926107
S         2.65792500772249   -2.97554101204443   -2.00288705864314
N         3.74800857694695   -4.10329018364604   -2.54608098482377
C         5.01196072757791   -3.87044820972049   -2.66970795752959
C         5.71749112830278   -2.58325382498376   -2.40668865565662
O         6.94017623179847   -2.52071462992611   -2.36445155642377
H         4.65356259927241    0.30827217708864    0.52817187606742
H         4.09925598975473   -1.30418561377463    1.03479370938524
H         3.48972157145429    0.06896611359327    1.93438162445026
H        -0.67364185833949   -1.71814372985224    1.20927052625488
H         1.76606878226796    3.53403415962100    0.86676105649439
H         1.69131954926784   -0.43357457797348   -1.80436032566936
H         2.86318091019814    1.72830534074414   -2.03064302217512
H         5.03159237307838    1.85603164013788   -2.77358581626230
H         5.57140545185015   -4.68866129045849   -3.14961353309090
