26
 energy: -46.146802098058 gnorm: 0.229041382815 xtb: 6.4.1 (79825abcba525fcdf90b791dcacef51065a7a4e7)
C         3.67680386957259   -0.42365033174871    0.86933705693837
C         2.50650175887623    0.00694251150027   -0.04213508547123
C         1.44277472813755   -1.04952588368513    0.20841784595364
C         0.46406452711337   -1.81232589079909    0.60879174316702
C         1.96047270970553    1.37888025134436    0.14914020471623
C         1.47671985286841    2.44756865963955    0.39532583507822
C         2.86165713692586   -0.07809079760323   -1.59085541120152
N         3.64757599632808    1.12886357331619   -1.90121098089119
C         4.97434645763452    0.97535879092622   -2.17402927684952
N         5.57012453543234   -0.11731844379071   -2.50604659461390
C         4.91514962628163   -1.32042807899339   -2.33309380800005
C         3.63779074831314   -1.36026828658026   -1.91103954550446
S         2.60016206786982   -2.74557135184525   -1.71658172310697
N         3.60643844324727   -4.01048860552800   -2.09414261412518
C         4.84161515379192   -3.84560880360721   -2.43211776149619
C         5.62975264161780   -2.59596510550437   -2.63472975754231
O         6.80027004130503   -2.66589491470801   -2.98920518500653
H         3.60522018428429   -1.50197786250670    1.06061558153897
H         3.71468837298857    0.08948629180351    1.83656270548443
H         4.72499008782933   -0.31378392794535    0.56854657195494
H        -0.30609936912397   -2.44845642327051    0.98142714698167
H         1.03941097997587    3.30939455927478    0.85148729054115
H         1.89441689277361   -0.14096810132619   -2.11023150417604
H         3.29354447485321    2.00532838855338   -1.52952827513701
H         5.58811571971129    1.89284271997413   -2.16363739324089
H         5.41548115110169   -4.76171612066714   -2.64232150129895
