26
 energy: -46.151284988214 gnorm: 0.222185003947 xtb: 6.4.1 (79825abcba525fcdf90b791dcacef51065a7a4e7)
C         3.64229925095085   -0.00481035453901    1.14992110524051
C         2.50354930540093    0.06850168418930    0.10892513538292
C         1.44473060623757   -0.98158262722046    0.40327757307592
C         0.28672226396166   -1.40171383272211    0.83052835756677
C         1.85001918336073    1.40618512709338    0.13010352743582
C         1.28472795337584    2.43522419656274    0.37144050180396
C         2.95266165333240   -0.23182181792400   -1.38773933523648
N         3.73024569587042    0.92597830215897   -1.86270230787607
C         4.96373288543298    0.82616603548177   -2.43441925264378
N         5.62910810525676   -0.27454892072243   -2.50393879253233
C         4.95422169183715   -1.45538130064511   -2.26615563561355
C         3.72297668639005   -1.51294366451261   -1.72570668593244
S         2.75756576003904   -2.95211479066031   -1.55158051508482
N         3.56654438128759   -3.99418824163520   -2.55895162204189
C         4.79351428328045   -3.81072546294272   -2.91666705996377
C         5.72334368037205   -2.67528922404201   -2.65204742152191
O         6.89812367467637   -2.70690457762615   -2.99780229530037
H         4.46407403138998    0.63572367064090    0.80509602480000
H         4.03171431816156   -1.01737152999628    1.30271396975023
H         3.26372769932515    0.41017707751933    2.09104219764505
H        -0.62854210251544   -1.93962949175332    0.92855651040005
H         0.70039166487814    3.32140462944536    0.49513994785791
H         2.01001548490395   -0.26891649299667   -1.95280655363202
H         3.31807450542745    1.85322577705416   -1.81793675639996
H         5.43746017766903    1.77338840831685   -2.74578670285264
H         5.15950695941757   -4.63187192727833   -3.55269242281990
