26
 energy: -46.149946910369 gnorm: 0.230161295013 xtb: 6.4.1 (79825abcba525fcdf90b791dcacef51065a7a4e7)
C         3.86897182004579    0.12872047826847    0.82023437054985
C         2.59187137725261    0.20178606348209   -0.04548762673680
C         1.66343261975169   -0.97521156187251    0.20570057422224
C         0.62016389018410   -1.69018148737063    0.52263138468416
C         1.87453669047740    1.47881637591644    0.22204115433034
C         1.17763864272386    2.37140729745203    0.61489438790499
C         2.89741164292187   -0.01557821479231   -1.59187003594458
N         3.85318008979827    1.03222191152682   -1.99105602491654
C         5.13411840926238    0.77037472946256   -2.37699186371377
N         5.63032210605388   -0.40874581911776   -2.52728219197695
C         4.84662571461984   -1.49514945659486   -2.19273069470406
C         3.53360165266109   -1.36945501969536   -1.92527703040085
S         2.50032464738011   -2.76309884901885   -1.77150054591357
N         3.42722702313614   -4.09180077527486   -2.13283585077593
C         4.68341175952295   -4.00212189046412   -2.41749646020761
C         5.55818195303507   -2.79526710417924   -2.37166712289000
O         6.75314818999657   -2.92558658197228   -2.60773176720530
H         3.58866637315392   -0.22785677371460    1.81962592604054
H         4.24235425729468    1.15868277155035    0.82598955950513
H         4.67038690326179   -0.52022969101595    0.44896972590429
H        -0.19253526876869   -2.37112080362896    0.63449449376369
H         0.71631055846060    3.25797056056954    0.99337580587201
H         2.00369830874539    0.07685685628772   -2.22589763585789
H         3.59477446308048    2.01398259534924   -2.02345068886952
H         5.72904407813064    1.68530117865853   -2.54303552982134
H         5.11553652773460   -4.97710959010324   -2.69213727812423
