26
 energy: -46.148595345974 gnorm: 0.224879569507 xtb: 6.4.1 (79825abcba525fcdf90b791dcacef51065a7a4e7)
C         3.97623171404732   -0.12010423033149    0.67334321194426
C         2.62818414731808    0.03837862391603   -0.06384714238233
C         1.64467886299421   -0.99792432038199    0.45500829710128
C         1.04533742099200   -2.10901544130282    0.78104986347185
C         2.09043521553515    1.36322251691536    0.35155849562419
C         1.69905685594116    2.42050263413800    0.75862215633030
C         2.69640733844794   -0.04963612110863   -1.65114031166263
N         3.48116903991025    1.03224044545808   -2.27115647066363
C         4.83871388323572    0.90820322238602   -2.27075499339262
N         5.46131104766610   -0.21558253916771   -2.17797087130113
C         4.71890149466799   -1.37915811759237   -2.21399215069400
C         3.38275544477501   -1.35950002305774   -2.05371103055293
S         2.43538197516616   -2.77065524125353   -2.43407422048928
N         3.45078128779757   -4.04947373203950   -2.13616898337123
C         4.71993564057398   -3.85799080366033   -1.99597065515469
C         5.53387213927998   -2.62988054042351   -2.22634914307344
O         6.75366228053118   -2.57971333419960   -2.32758772695317
H         4.63899253898966    0.74787328793599    0.56441629936659
H         4.48830700061142   -1.03406749147222    0.35284369290410
H         3.74952757232781   -0.08500249941303    1.74507685238600
H         0.45022247497183   -2.91254692904961    1.15097818789277
H         1.40276912104691    3.42809119384746    0.95622040747175
H         1.71833669790166    0.03913444883327   -2.14586888516249
H         3.04878784248036    1.94294365894488   -2.39502364414530
H         5.48430508267001    1.71979242738777   -2.64908345380983
H         5.24248963659402   -4.75313352745503   -1.62392598708289
