26
 energy: -46.152671586906 gnorm: 0.220862576670 xtb: 6.4.1 (79825abcba525fcdf90b791dcacef51065a7a4e7)
C         3.89934542112861   -0.04677185967622    0.69912898174621
C         2.52785151569033    0.04582577314753   -0.00530612222959
C         1.63059375715207   -1.11303308408297    0.39767285453289
C         0.90903784255535   -2.02727441158009    0.98380986526564
C         1.76282396769765    1.29139652778899    0.27794893808907
C         1.16343120155201    2.30272683423532    0.51174030734939
C         2.86666360737163    0.01027923985844   -1.55960449240663
N         3.78129855191417    1.08820109289735   -1.97464095485794
C         5.11858878661243    0.85293679661178   -2.09554971512548
N         5.67909324219127   -0.30563943626389   -2.14718713442179
C         4.84708167038876   -1.40481250424831   -2.22434221297896
C         3.54492579741039   -1.32272785948910   -1.89416812748755
S         2.43812761638031   -2.64815731363154   -2.12173404849028
N         3.41961035720944   -3.95218818663473   -2.42398416903974
C         4.70162243815155   -3.91482061971655   -2.57272132722795
C         5.55054822105170   -2.69046316515649   -2.50872506169682
O         6.77257542912441   -2.70007227903137   -2.59364358349911
H         4.70283636256982    0.55359185228499    0.25363187397980
H         4.24315233959598   -1.07254248896699    0.87193320346692
H         3.75480749726617    0.31520230032472    1.72349385334297
H         0.14384805958768   -2.71457400098574    1.26447957032705
H         0.73242499532082    3.20281631922678    0.89402130428997
H         1.95680196415221   -0.00262576745180   -2.17705409281891
H         3.36271086341699    2.00756146179602   -1.86863256386012
H         5.76071632550749    1.73586748173241   -2.25896050135001
H         5.12157272076918   -4.92186900019379   -2.72190484701610
