26
 energy: -46.148643846492 gnorm: 0.216223630476 xtb: 6.4.1 (79825abcba525fcdf90b791dcacef51065a7a4e7)
C         3.85086259460159    0.32129085394903    0.92917128687272
C         2.63056201552416    0.10025456297574    0.00840630017166
C         1.84614817388210   -1.08276678566598    0.55207243067559
C         0.79968072835950   -1.79384483927181    0.86720837877917
C         1.75581351097762    1.29953615363158    0.12453494945700
C         1.13079810068944    2.32151568112636    0.16494163503807
C         2.90430604580105   -0.05785141830820   -1.55107032467784
N         3.80056502889718    0.99339309145494   -2.06325456679899
C         5.14797434157805    0.80924647016076   -1.96895947526991
N         5.66424512392217   -0.36766185194342   -2.05545709404523
C         4.86383441801950   -1.49059288152688   -2.12434975695643
C         3.53525790029576   -1.40271126689781   -1.92807444378493
S         2.43101082101312   -2.74484594027800   -2.04149667831750
N         3.41937662104868   -4.06015413853723   -2.26117238352595
C         4.66778088710388   -3.98048908570102   -2.58088213359539
C         5.53004413680970   -2.76509129910034   -2.52491787000543
O         6.71708262261170   -2.83065482336247   -2.82037522152519
H         3.67227942240205    1.27610743035907    1.43998957190595
H         4.73114663476473    0.36884307539699    0.27870323445320
H         4.02722583303154   -0.52519528047054    1.60266748564465
H         0.29688731455980   -2.61812861711264    1.31934405685500
H         0.57161939993704    3.22545595803209    0.27574491829927
H         2.01255122431573    0.04250843555402   -2.18664880525453
H         3.42393980793622    1.90884415581468   -2.29080613011982
H         5.75615045729419    1.72695322851239   -1.88812894771029
H         5.12940733577580   -4.96383921015452   -2.76166919709681
