26
 energy: -46.153349215610 gnorm: 0.224953758389 xtb: 6.4.1 (79825abcba525fcdf90b791dcacef51065a7a4e7)
C         3.73171856809906   -0.43423470138077    1.00077768165017
C         2.54537394732953   -0.08158745284872    0.07664292310601
C         1.37443785970829   -1.02854842822076    0.28301884592330
C         0.23805075162441   -1.66099983072054    0.37611195315185
C         2.22130411986049    1.34479281045562    0.35478896426270
C         2.02688701195832    2.47800257451683    0.69354658857571
C         2.73250423668603   -0.10941278447886   -1.50326487491348
N         3.52425896740771    1.04776865339715   -1.95579492212400
C         4.81342932894091    0.94197550144847   -2.38609828266098
N         5.48572481651159   -0.15527606796543   -2.44256357664255
C         4.79228105639711   -1.33121368632664   -2.23596233792678
C         3.48902745991408   -1.38073324807609   -1.90363626601838
S         2.60168329343324   -2.87819249479982   -1.84209086420391
N         3.69433846331818   -4.05269040326050   -2.26849368829696
C         4.92508258070350   -3.84133173108744   -2.59662549956217
C         5.63234296093280   -2.53027435662447   -2.52782862376413
O         6.81593914773268   -2.45608295583529   -2.83482975160761
H         4.50428135574880    0.34453619178802    1.03490383414132
H         4.13043964422676   -1.43129781470226    0.78362211950645
H         3.35370242726450   -0.40335811680581    2.02907254748333
H        -0.64351671523020   -2.24525850178227    0.51084216725801
H         1.80244601728631    3.41964181355106    1.14632466908136
H         1.73095566161576   -0.06366593889583   -1.95500200982024
H         3.14168599069914    1.98710066711290   -1.90129532441174
H         5.29280959466984    1.88870194927551   -2.69023813764587
H         5.59692152754846   -4.70844950792782   -2.69409139958608
