26
 energy: -46.153467863185 gnorm: 0.214550479333 xtb: 6.4.1 (79825abcba525fcdf90b791dcacef51065a7a4e7)
C         3.71602407057077   -0.11529105975546    0.88494310301977
C         2.48834101374441    0.07174137705788   -0.03354036207755
C         1.43245710504502   -0.98535735010963    0.24586773257969
C         0.37710238100489   -1.66479307263290    0.59889786010486
C         1.93789820601561    1.43942991351752    0.17475727488439
C         1.52155923286156    2.56135805293346    0.24300838848197
C         2.86089266814953   -0.06865453303743   -1.57412301142486
N         3.77852484002890    1.00905951073662   -1.98303806358307
C         5.12492793641242    0.83610240779968   -2.10792977087859
N         5.67402746064454   -0.32756236326618   -2.16712920140637
C         4.89685118904337   -1.46862286174187   -2.14827217709001
C         3.60932403233563   -1.39257697898016   -1.76375481929261
S         2.59711340572137   -2.80734646815180   -1.67768128621300
N         3.60298037490144   -4.08787405648059   -1.99961414187667
C         4.83811233862628   -3.97758447639854   -2.35927968159534
C         5.54267151495575   -2.70376960588046   -2.68302918545954
O         6.51944457376840   -2.65106823338948   -3.42045101223303
H         4.20680271143399    0.86486060138506    0.83071201426430
H         4.32838396749049   -0.96222575645654    0.55632955421069
H         3.48960496456730   -0.22254081471732    1.95193503011766
H        -0.05765683150044   -2.56168083351029    0.97737956513772
H         1.05390568903726    3.51381258728428    0.37027475058707
H         1.93601284592820   -0.06412748086300   -2.16896381739048
H         3.43312532874767    1.96420937188034   -1.97498549308969
H         5.69300499216701    1.78162382548091   -2.15123293756664
H         5.34859178974636   -4.94903074851706   -2.45127576694588
