26
 energy: -46.147549324248 gnorm: 0.232025621083 xtb: 6.4.1 (79825abcba525fcdf90b791dcacef51065a7a4e7)
C         3.88808620873157   -0.25667161358466    0.76949167727969
C         2.65241919686923    0.11807753549404   -0.07814552046823
C         1.62442949993149   -0.85489640775550    0.47590893963016
C         0.72197938084480   -1.71172048156740    0.86510434842567
C         2.00728253713403    1.45273368850643    0.06127753000752
C         1.62109742518956    2.58416295035543    0.14757934358281
C         2.81241114573159   -0.07028888242839   -1.65003016408393
N         3.61130145348667    1.06023923479018   -2.15441924187957
C         4.95958940671502    0.87173565851264   -2.08442353084784
N         5.57366673821393   -0.25805043118496   -2.00943697666842
C         4.86021482221457   -1.43985803263166   -2.03579526959094
C         3.52081816395899   -1.40448475499167   -1.90879888703085
S         2.44096519463936   -2.76913256046934   -1.98094902068535
N         3.45757516549807   -4.06658323782819   -2.17661694363964
C         4.73753389904182   -3.95576593807204   -2.30506625839705
C         5.55041877005141   -2.70987966949513   -2.40902439786843
O         6.66581680646402   -2.81321040725513   -2.90487112041228
H         3.51409673093418   -0.78404909284543    1.65634387990307
H         4.38189757809731    0.67230996332547    1.07512782139833
H         4.63831563176547   -0.88318821369246    0.27363619565165
H         0.12676555636490   -2.40299076831797    1.41695353571479
H         1.05122431184673    3.48798101372180    0.16816464793551
H         1.79623372447466   -0.10653040743435   -2.06875295045904
H         3.29118734092876    2.02418756398291   -2.15168113363624
H         5.55776150448033    1.79574033146849   -2.16810725835251
H         5.35470157832196   -4.86725326338039   -2.33755201742215
