26
 energy: -46.149773145890 gnorm: 0.222947007628 xtb: 6.4.1 (79825abcba525fcdf90b791dcacef51065a7a4e7)
C         3.59451106638167   -0.56264549430841    0.85757165932296
C         2.42669137812309   -0.05335031640767   -0.01570623752317
C         1.20330422211156   -0.93208002168723    0.18819417632068
C         0.13483896446804   -1.53841129205688    0.62497917106837
C         2.04939520512736    1.33532361535242    0.36662793782197
C         1.53756208047784    2.39504644445490    0.59407788726766
C         2.92529867721041   -0.02049709366070   -1.52640542883399
N         3.80890653363092    1.12784490161400   -1.79338048828447
C         4.96770923940441    0.93205401579798   -2.48414499707524
N         5.52753921287119   -0.19512703118500   -2.75834172430597
C         4.84786171903619   -1.33421644248320   -2.37507756469879
C         3.56308831785789   -1.34018048442031   -1.97422287756220
S         2.70181601022430   -2.83104796114851   -1.71139998982995
N         3.71628200318029   -4.07021493492962   -2.14784470002596
C         4.96595570480261   -3.91055719422884   -2.43050899608185
C         5.63760300906872   -2.58626807128180   -2.56824031126767
O         6.85408567474266   -2.48778431802466   -2.67371483158041
H         3.94510052769826   -1.54561916602590    0.51793693001712
H         3.27160682619577   -0.71474801331904    1.89336486325402
H         4.42830515698050    0.14869956221443    0.85363219706576
H        -0.71321760737869   -2.03995991069983    1.03231275775608
H         1.22703586687034    3.41735006763015    0.61720743466142
H         2.01940198067098    0.10411291606130   -2.13721004811639
H         3.40010830350978    1.97688611846650   -1.41431593175716
H         5.50725077309989    1.79794710085785   -2.90571534092081
H         5.65652201107939   -4.74072446628530   -2.64661287737464
