26
 energy: -46.151931946562 gnorm: 0.223014434535 xtb: 6.4.1 (79825abcba525fcdf90b791dcacef51065a7a4e7)
C         3.90879384182802   -0.23702482382866    0.87250198503118
C         2.59842408061442   -0.02725376145949    0.08210595162165
C         1.48439463300342   -0.97085217449424    0.50516371753941
C         0.36972011378393   -1.64680929243939    0.53005279827537
C         2.08830895204207    1.34119205468383    0.37208137305740
C         1.82656154006713    2.49845560114845    0.54222394292433
C         2.75222897931174   -0.21101456654412   -1.49094098489736
N         3.45739046278013    0.94580895697908   -2.06993537405958
C         4.81948717248165    0.98536515481987   -2.10789930303504
N         5.50873711266025   -0.09915217203290   -2.19670947080115
C         4.83540720685840   -1.30455819812846   -2.19585058610962
C         3.52388696892124   -1.45824328831052   -1.93573850202253
S         2.55417676693248   -2.90489373783417   -1.91533519771402
N         3.60505649194754   -4.05432669033298   -2.48945689148251
C         4.85046457961090   -3.78868383654606   -2.70268593920982
C         5.62762001546008   -2.53117707275551   -2.50640077392531
O         6.82797836943232   -2.69607466425150   -2.68696265936266
H         4.68492580768267    0.49219282726419    0.60724220662188
H         4.28580639382868   -1.25791365644347    0.74633774508768
H         3.67726410213276   -0.01444240679367    1.92040033199988
H        -0.42315337667083   -2.28077188977594    0.85580528817935
H         1.35531352862174    3.43356890419165    0.75565925872316
H         1.76044709863035   -0.30818014209496   -1.95589939214855
H         3.02223406280311    1.85377941449489   -2.20374672914404
H         5.31697575075415    1.96733859640639   -2.19054754522456
H         5.53977373847255   -4.60705834393612   -2.96321705474430
