26
 energy: -46.149708334563 gnorm: 0.226539475393 xtb: 6.4.1 (79825abcba525fcdf90b791dcacef51065a7a4e7)
C         3.50023912508414   -0.20064800884047    1.11312671027919
C         2.45225491882092   -0.01718847087150   -0.00663682950879
C         1.27104244278643   -0.88762662867323    0.39021568299450
C         0.17592913942937   -1.47271346449248    0.78825714012282
C         1.91670458726185    1.36680299237796    0.11460917267391
C         1.45581245043860    2.46800434826610    0.22255877585875
C         2.91353012047506   -0.15914645865248   -1.52287352807154
N         3.67290035871483    1.01560371275759   -1.98552538605847
C         4.96410729396875    0.84115063690771   -2.38635473167086
N         5.67993558186147   -0.22958349713650   -2.40212909280726
C         5.03036046971749   -1.42188633814240   -2.15144263020951
C         3.72326436210196   -1.42344015522371   -1.83072455191312
S         2.73777427831104   -2.84884290457385   -1.65583031589794
N         3.63862465146336   -4.01241353885285   -2.42377042599750
C         4.88599638744764   -3.87568634580879   -2.72781562679450
C         5.74804051250217   -2.67508405550545   -2.52968495763919
O         6.92333131200515   -2.69928005478690   -2.87430080428488
H         4.53909168691633   -0.06182378287616    0.78752704067420
H         3.40165370765306   -1.22314422897005    1.49398401068519
H         3.29503779687957    0.44250712307516    1.97654073854892
H        -0.61822995347390   -2.12180486577470    1.07922674147292
H         1.11694905016906    3.47802507573713    0.30679612050390
H         2.01835324663083   -0.28143910616900   -2.14974005190260
H         3.20986135808969    1.91833329853434   -1.93703728841880
H         5.41758122768572    1.82913741749196   -2.57829474897664
H         5.46025355282288   -4.75134767848272   -3.06870615166298
