26
 energy: -46.153952559782 gnorm: 0.227370148259 xtb: 6.4.1 (79825abcba525fcdf90b791dcacef51065a7a4e7)
C         3.93465078142682    0.00472187001287    0.82398358601620
C         2.63613707865707    0.10739458219242   -0.00614844211703
C         1.62914735567625   -0.95171332373085    0.41179844007361
C         0.87409135103848   -1.93785535574165    0.80859952302877
C         1.83152249298421    1.31857700564832    0.31413214113889
C         0.96978888634576    2.07664757616245    0.65976680806123
C         2.95657238429563    0.00787627270002   -1.56156413313329
N         3.82587672411334    1.12027701828050   -1.98299316625268
C         5.15675820383864    0.90734470188775   -2.18726679102587
N         5.68915958462423   -0.26154607433174   -2.28408457293936
C         4.87388390526392   -1.37542640396058   -2.25287916487776
C         3.55643388998477   -1.33889395676644   -1.98020060906993
S         2.42616037179529   -2.66001014944141   -2.08357122717184
N         3.37309899316471   -3.97908418973228   -2.42782542711333
C         4.66107719564661   -3.89897211111022   -2.46987620085778
C         5.54289538992400   -2.69674420857672   -2.44044069988898
O         6.72928378733425   -2.92304702698474   -2.64519324043571
H         4.67900289264619    0.76189070156524    0.54624763640904
H         4.40880749399708   -0.98208803916049    0.78334489358095
H         3.71643277156745    0.27220103969085    1.86421225914562
H         0.23212410667973   -2.72025824214941    1.14385377234582
H         0.25351132467461    2.85428307281910    0.81563759620812
H         2.02551298030723    0.04330689478349   -2.14562905306852
H         3.38257756447490    2.02137364691214   -1.83071826517280
H         5.82764792528883    1.76854292039326   -2.35110228069487
H         5.19226267098763   -4.82121069758180   -2.75285746396793
