26
 energy: -46.152642376648 gnorm: 0.219654814241 xtb: 6.4.1 (79825abcba525fcdf90b791dcacef51065a7a4e7)
C         3.42822034853467   -0.27955273046353    1.09409057294106
C         2.36743551070433   -0.00623665187194    0.00513118454998
C         1.21822524718338   -0.96964214221720    0.25329053253663
C         0.32802683255689   -1.70423306824038    0.85988736727911
C         1.86825864470054    1.38947778134295    0.14566874269872
C         1.58933022378262    2.55306711624074    0.21622301694032
C         2.98722856149729   -0.11809130054136   -1.45611682403451
N         3.85014421825358    1.05578651883342   -1.67546884876466
C         5.08464285030595    0.90180438646847   -2.23279821721278
N         5.59386899943129   -0.21176253875393   -2.63253311709116
C         4.91035660051523   -1.39516358834879   -2.43568201383908
C         3.70665001457602   -1.41750472303703   -1.83405582136444
S         2.74784586763142   -2.84012602725068   -1.53339831832497
N         3.79110068533116   -4.06470382741996   -1.94228537599088
C         4.90739676055298   -3.95389111716759   -2.58156440553234
C         5.58198700048319   -2.65563496247186   -2.87014830500683
O         6.58611300873847   -2.52309807528744   -3.55921937135511
H         4.29977911942720    0.37179007711670    0.95042492702851
H         3.76639690041329   -1.32141329966658    1.07328041190729
H         2.86745648294154   -0.12790917596649    2.02349254225095
H        -0.48021158227254   -2.35144295451584    1.11393786393461
H         1.26387053089230    3.55910497435898    0.37123922148768
H         2.10257338994320    0.01192137099682   -2.09622673898033
H         3.43429088673924    1.97861438362139   -1.59101969402034
H         5.70280123911317    1.78829267879500   -2.45777859763839
H         5.47721640816471   -4.88015049920956   -2.75508540640488
