26
 energy: -46.149135308902 gnorm: 0.226947170228 xtb: 6.4.1 (79825abcba525fcdf90b791dcacef51065a7a4e7)
C         3.47359541314672   -0.44883133201775    0.91324009292513
C         2.33838254503237   -0.06541068141897   -0.06147988955193
C         1.09683498030422   -0.86039998283371    0.30861342215006
C         0.08826566416321   -1.57945291709936    0.71578360377292
C         1.90492517543361    1.33535739870647    0.19719098464347
C         1.45321083216857    2.42451298744181    0.41262859686391
C         2.95162614809150   -0.11412978649537   -1.52894687564042
N         3.83472283904866    1.05228644424143   -1.70313438101830
C         5.03102468190928    0.90892395049821   -2.34080395953943
N         5.62462125097903   -0.18407157158711   -2.67566880107920
C         4.97572144993812   -1.35600436050413   -2.34118383807432
C         3.74591581370437   -1.39735603152463   -1.79599498428072
S         2.76200866946480   -2.82278167715340   -1.61258242184332
N         3.68811970252339   -4.06235474458183   -2.21336274238432
C         4.87832125501365   -3.83778652917064   -2.66064725949901
C         5.71484501106499   -2.60375135093785   -2.69538751384008
O         6.91749312872322   -2.59751361854103   -2.92830936878072
H         3.75873959883067   -1.50855355860028    0.92678826795071
H         3.27621036268882   -0.11936330954145    1.93928095549499
H         4.36338779180387    0.13574693291515    0.65289863890526
H        -0.76707806829642   -2.10950782086379    1.06806263168447
H         1.10252562124114    3.33516708438779    0.84828351309135
H         2.05353450685125    0.00955100647965   -2.15135608873934
H         3.42062079764728    1.96891010250365   -1.56172189998641
H         5.63866117657926    1.82264808992624   -2.46115156527562
H         5.43163227961652   -4.62409153217488   -3.19761259102250
