26
 energy: -46.148196581683 gnorm: 0.225607825113 xtb: 6.4.1 (79825abcba525fcdf90b791dcacef51065a7a4e7)
C         3.57124801786170   -0.42863748576519    0.88305527419671
C         2.38763964899912    0.00809587545622   -0.00808663055567
C         1.09086818777335   -0.67237915701466    0.39904349152528
C         0.33285672371625   -1.49459862776309    1.06942437411443
C         2.22393907350630    1.46955007123624    0.22493887133326
C         2.30991984510660    2.65176460371654    0.04690736028084
C         2.65792676419113   -0.24775443913946   -1.55514387455343
N         3.34540317149830    0.84577923221318   -2.26386679267182
C         4.70482083132462    0.87718196336616   -2.16737383079419
N         5.45661686609048   -0.15290736032732   -1.98613017364930
C         4.85947586978192   -1.39776263678385   -1.99777337207696
C         3.53061083205348   -1.48314580213589   -1.80235035167628
S         2.69428004585635   -3.00332812265132   -1.95449573439701
N         3.77229632431684   -4.15385606230929   -2.47346238615791
C         5.00973731922974   -3.80793263361427   -2.60054823569048
C         5.74872224921660   -2.52899583196861   -2.39550285683171
O         6.91549882889669   -2.32087760335990   -2.70529827016497
H         4.48708503688848    0.10322154904507    0.59518293879906
H         3.75140259906879   -1.50577569433033    0.79594904852631
H         3.25914909524107   -0.26867762415745    1.92144200511998
H        -0.44200513007718   -2.03130109875117    1.56763235382859
H         2.28340250422213    3.71927765282684    0.08908471580488
H         1.68678159618027   -0.36405785063746   -2.05774644303415
H         2.79694222743078    1.69721045947834   -2.34088874181787
H         5.07876143793446    1.91140552197436   -2.26301644677251
H         5.60722455352591   -4.69619286991442   -2.85893392229566
