26
 energy: -46.151412943590 gnorm: 0.225719971103 xtb: 6.4.1 (79825abcba525fcdf90b791dcacef51065a7a4e7)
C         3.47099028276808   -0.51628081012432    0.97965061669153
C         2.38342478811099   -0.03954223790287   -0.00813494952623
C         1.25059727313404   -1.05117826208555    0.05278961641242
C         0.21410444135864   -1.83746225730384    0.13925838512649
C         1.95736331494066    1.31469889201745    0.44069652858238
C         1.86487902330891    2.45225661106663    0.80693168959897
C         2.84684764959174   -0.02715622931943   -1.53030001012558
N         3.74431934092835    1.07261285756871   -1.92499026393270
C         5.00803372598855    0.95665887473444   -2.42287983189562
N         5.54544198732559   -0.18345386057215   -2.68833392240578
C         4.83284248122137   -1.33159645653496   -2.40487645867953
C         3.59893159656735   -1.31924131804093   -1.86759251410564
S         2.72386384351524   -2.76564687187406   -1.44840387559719
N         3.66231880795095   -3.97846637984600   -2.08364489442079
C         4.86485078839627   -3.83062986253737   -2.52989063984629
C         5.62448331481346   -2.56002009140876   -2.70969871856602
O         6.83320842441765   -2.52618185980934   -2.90589399316303
H         4.16327148145918   -1.24045273628140    0.53151701707717
H         3.06320717226695   -0.94594909826831    1.90126223990208
H         4.08555045292736    0.35804537269978    1.22277490946541
H        -0.54280032281400   -2.54682332605155    0.38537558367071
H         1.80943862926220    3.50567072675382    0.97813702290855
H         1.98767217370976    0.08364284184913   -2.20764765536124
H         3.40466489055109    2.00571850370723   -1.71138869334702
H         5.46849209863821    1.92195584436870   -2.69633422621482
H         5.37106090008210   -4.75569344029351   -2.84733215321648
