26
 energy: -46.150330594533 gnorm: 0.221185937480 xtb: 6.4.1 (79825abcba525fcdf90b791dcacef51065a7a4e7)
C         3.85980356854275   -0.37048260800146    0.67258389192115
C         2.48635018906081   -0.05504580217132    0.04018835406473
C         1.27877783424466   -0.92423044770665    0.35116178819910
C         0.08729596288970   -1.41650439745793    0.54628754654159
C         2.03149428696099    1.32549126389216    0.36294311505908
C         1.72955900499284    2.46046081618759    0.60252254443691
C         2.71306181832530   -0.16933141460228   -1.53062076109452
N         3.50132288008305    0.96236537781170   -2.04892062882099
C         4.86147476916722    0.93209097352091   -2.13484907890322
N         5.53453893403847   -0.16177959896389   -2.23263643008620
C         4.81739278705156   -1.34158516519992   -2.22089588916693
C         3.51164824545554   -1.42272817609602   -1.90496905650198
S         2.71820912233739   -2.96564423298931   -1.75194582582516
N         3.75882208810622   -4.10332463851211   -2.36673683071382
C         4.94896165352307   -3.82564875474118   -2.78331573395798
C         5.65688483302271   -2.54683064080076   -2.48786572131093
O         6.87900366897581   -2.46932583272331   -2.52061561094218
H         4.08220855540984   -1.39824650820453    0.98681205688656
H         4.04408128498611    0.16838511482962    1.60849691346896
H         4.64543920015396   -0.00466064349299    0.00162127088160
H        -0.85632043574168   -1.89054343913773    0.69307548262370
H         1.48943646749413    3.48897555195237    0.76550968357854
H         1.71209464774247   -0.18803306069098   -1.98556442500474
H         2.99847333512211    1.84365123430631   -2.09533721425338
H         5.42028611570652    1.88041432988447   -2.21857571645510
H         5.49191984825118   -4.69727179757337   -3.18109718470594
