26
 energy: -46.151190433109 gnorm: 0.223727526981 xtb: 6.4.1 (79825abcba525fcdf90b791dcacef51065a7a4e7)
C         3.79711186731091   -0.10734319044466    0.78918067685029
C         2.50558970685976    0.10874718802827   -0.03001047707772
C         1.34876509828390   -0.79408797186396    0.36630118356047
C         0.31085287035952   -1.57441808099753    0.24857312636458
C         2.05822103382724    1.50031995269891    0.25342138967248
C         1.77915483027473    2.57296741918550    0.70978590017389
C         2.72212202945313   -0.22922831271000   -1.56974647372334
N         3.40247795119690    0.90992686031455   -2.21019100305914
C         4.76253620060686    0.83882977455945   -2.26935318582636
N         5.54176815263091   -0.18634187123680   -2.23851126517283
C         4.86466480640510   -1.38928842225129   -2.20973195023731
C         3.58076219420014   -1.47476704201445   -1.81520663875810
S         2.65204804089600   -2.94757421398929   -1.77183899324961
N         3.72518282230929   -4.16383201507377   -2.12434250753322
C         4.97209810148897   -3.93187000154881   -2.36614814397365
C         5.68051971318231   -2.62092841402723   -2.42439474184330
O         6.84756886494563   -2.63968253689508   -2.79627986796538
H         4.64592527482142    0.36788355681511    0.28106917648360
H         4.13195304195277   -1.14702573282375    0.87410113306378
H         3.72114881794855    0.24469417722150    1.82433245336277
H        -0.56936285006202   -2.11288796429550    0.51679336882641
H         1.52948417538105    3.56391303279699    1.02244794778521
H         1.74530378527469   -0.32586456715108   -2.06547453820274
H         2.99649345547048    1.82700942885955   -2.04952651670893
H         5.19182985867836    1.81936974506059   -2.53925276543825
H         5.52938730654619   -4.77687477781758   -2.79991776023515
