26
 energy: -46.152542526895 gnorm: 0.229081409355 xtb: 6.4.1 (79825abcba525fcdf90b791dcacef51065a7a4e7)
C         3.77783301025389   -0.22162300978223    0.93116411434158
C         2.61735479243758    0.05481965163289   -0.04999258288514
C         1.49201718718798   -0.85351030708791    0.41794909535021
C         0.44005680230657   -1.50877416534227    0.82297428201720
C         2.20053923866941    1.46178412750915    0.20232249905561
C         1.83095586781033    2.57373623676788    0.45469079469789
C         2.73929201383662   -0.15998469448012   -1.62189940504406
N         3.45326197461929    0.94521812014665   -2.28484851402524
C         4.81358812704730    0.87298197796992   -2.33591807455214
N         5.48745650799425   -0.22276977862784   -2.26988735329470
C         4.84097446791239   -1.43563673357504   -2.13800736233169
C         3.50574832346806   -1.44093271473253   -1.96917058803016
S         2.51669851277121   -2.87455825014198   -1.96209873411004
N         3.56283346385395   -4.07102471203894   -2.44087811876757
C         4.84176748129446   -3.89734057485269   -2.47603004540534
C         5.66641499746315   -2.66115049065210   -2.35108105347778
O         6.89044605059437   -2.64398423137123   -2.39698631661524
H         4.43508582204569    0.65699542538362    0.95462365380850
H         4.30812163816809   -1.07662883139964    0.49754111177765
H         3.45656821908109   -0.53735537349102    1.93033472252932
H        -0.14576501450244   -2.28587344138302    1.25840641998143
H         1.73419362789572    3.61165093469621    0.69014006813871
H         1.70334924621653   -0.27823730296176   -1.97132418026248
H         2.95152054977305    1.82703721120396   -2.33309329190640
H         5.36638057833699    1.80131326453700   -2.56223419753401
H         5.45357909766766   -4.80379183409002   -2.60561814056716
