26
 energy: -46.150769742327 gnorm: 0.221920672240 xtb: 6.4.1 (79825abcba525fcdf90b791dcacef51065a7a4e7)
C         3.72264237991578   -0.57282876646348    0.79738504176237
C         2.52909702117981    0.00453375875355    0.00498320364785
C         1.22118739670404   -0.61934936052900    0.46385103524434
C         0.19011664141798   -1.39267701043081    0.66106716206157
C         2.41566986596908    1.46961322951876    0.24503221181565
C         2.30917899216757    2.66205380702500    0.30389014012354
C         2.62929615075743   -0.25660080233972   -1.56143612021121
N         3.19282810392156    0.85976326569487   -2.34046813465774
C         4.55285772749041    0.91482994817133   -2.26563174820805
N         5.34799977209437   -0.09744558808900   -2.21896347195339
C         4.76317439245855   -1.34755688878660   -2.17923180391476
C         3.48334906060105   -1.50760789550975   -1.79479256299696
S         2.69996493154979   -3.06298236607774   -1.82070108048575
N         3.80492407410899   -4.15628415532287   -2.40286644854572
C         5.03037227621161   -3.78819757828768   -2.57567567350848
C         5.71666586077570   -2.48173093714618   -2.36127483113303
O         6.93720947824065   -2.38092120317732   -2.38892732437585
H         4.62619820292407   -0.04160853489308    0.47197161243482
H         3.94099418828171   -1.64373221565387    0.72150242887028
H         3.52834430774097   -0.33860176551569    1.85029808066281
H        -0.63586999248784   -1.79937166864107    1.19867032391192
H         2.12796598497245    3.68930890016505    0.53621538050643
H         1.61841543432011   -0.41457206775433   -1.96445475125483
H         2.77967492358710    1.78614479138113   -2.39337030467679
H         5.03803976194085    1.89877057753547   -2.38833745618612
H         5.74503724261731   -4.50519679131707   -3.00918060519397
