26
 energy: -46.152548043511 gnorm: 0.227934041010 xtb: 6.4.1 (79825abcba525fcdf90b791dcacef51065a7a4e7)
C         3.71348064807043   -0.05436683582675    1.02286062694125
C         2.50294818950270    0.08653001905452    0.07388332141597
C         1.34987006968643   -0.81196936493491    0.49044919221672
C         0.40868677255461   -1.50002423431939    1.07422248101956
C         2.00688324429603    1.48818240069526    0.15285982629948
C         1.56601548183390    2.60263506846567    0.17156731902319
C         2.80352013886346   -0.23426252705110   -1.45538096673122
N         3.53102852435377    0.83669821006707   -2.15858970528810
C         4.89266528066252    0.77369619933990   -2.17560420084920
N         5.61951531587042   -0.27883512410398   -2.02395523905350
C         4.90795578778034   -1.46156350822548   -2.05880088762656
C         3.58557955824631   -1.50317786428344   -1.81191607885726
S         2.64966702555472   -2.96771632880177   -1.92481656847681
N         3.66141942429161   -4.14030183492464   -2.52194330813540
C         4.91450489184547   -3.90090576945419   -2.72079098064106
C         5.67573377454769   -2.62493284532635   -2.59333357081218
O         6.83591551750193   -2.55587758285984   -2.98045589491989
H         4.55215959806740    0.45141067637479    0.52757415652304
H         4.03503518805695   -1.07133833185543    1.27314354102667
H         3.41360302607403    0.37825010800244    1.98419089702886
H        -0.39514829884157   -2.03746149216062    1.52331266388754
H         1.17061644777510    3.59016863791796    0.27405271513365
H         1.81004485430036   -0.16185630785746   -1.92123820585523
H         3.08874550619815    1.74087333554163   -2.29471463874807
H         5.46534314251118    1.71737310180564   -2.16504803189572
H         5.51216296824335   -4.70565630077088   -3.17679736293951
