26
 energy: -46.146153719382 gnorm: 0.217457705892 xtb: 6.4.1 (79825abcba525fcdf90b791dcacef51065a7a4e7)
C         3.42687306598261   -0.59247690883962    0.89222874811357
C         2.36286007568871   -0.03072363419192   -0.07633116851714
C         1.09107435349338   -0.81581464612281    0.20045507508107
C         0.21292192377546   -1.32758163989692    1.01714328487876
C         1.98351199720257    1.35740969190468    0.30593579567628
C         1.82772066707652    2.47513657625643    0.70983526755252
C         2.80954914112089   -0.11547072894667   -1.60118769655080
N         3.65218363067012    1.02596404678320   -1.99845540783024
C         4.97185348246833    0.91325692427168   -2.32107279025093
N         5.62606571868259   -0.19364165357132   -2.39796521603918
C         4.91524376411994   -1.36046745626695   -2.19889916405228
C         3.58782578142054   -1.38092116805890   -1.97775243130915
S         2.72390191675551   -2.89080657463085   -1.89153581134009
N         3.84637899653109   -4.10231070748197   -2.05725535218160
C         5.08075273996457   -3.86205809310132   -2.34995690512576
C         5.73989312264731   -2.54459373735387   -2.58156718109178
O         6.80283996632937   -2.41636298428363   -3.17684432071825
H         4.41155660506844   -0.49423554417905    0.41762478196819
H         3.35661445853793   -1.68113779914506    0.99298132807620
H         3.46563416978631   -0.04743836231089    1.84231845657318
H        -0.64960767864845   -1.85898324999928    1.34929783768067
H         1.37759981882032    3.39856670824112    1.00434201039761
H         1.82489212821587   -0.19640057588193   -2.08405381586255
H         3.19346604144296    1.89800583568788   -2.24502833873730
H         5.43412673660960    1.85170679359405   -2.67351106526339
H         5.63478822436624   -4.80415831516431   -2.48505783571740
