26
 energy: -46.149443932041 gnorm: 0.214590202667 xtb: 6.4.1 (79825abcba525fcdf90b791dcacef51065a7a4e7)
C         3.77600178508598    0.09691442139332    0.98240055931003
C         2.54159632637398    0.10674353391404    0.05399049874287
C         1.53314212688137   -0.90769787602028    0.56813657124649
C         0.53411603095051   -1.74465873065413    0.60660933948860
C         1.89553521719361    1.44809676953605    0.03599993867092
C         1.39889384079386    2.52832821254720   -0.11620543690553
C         2.84057690035448   -0.21772973118209   -1.47480914401475
N         3.60605849898489    0.85459303472384   -2.13427080640420
C         4.95909812713588    0.81747257224431   -1.97234725798351
N         5.65124481867383   -0.26615857610889   -1.89614323296519
C         4.94424805831215   -1.45054907202146   -1.95739946707582
C         3.62380744331853   -1.51480731020189   -1.70506992294142
S         2.62218206139739   -2.93921206138582   -1.66806467182674
N         3.52137201359680   -4.04699143247363   -2.51626413029108
C         4.76514354290074   -3.86490146796999   -2.81113644619499
C         5.59232325320367   -2.64773880169055   -2.57007533283875
O         6.77730278052546   -2.60045650109834   -2.87706376142118
H         4.57892787238195    0.63682665533924    0.46441751007371
H         4.11426945581955   -0.92569619725688    1.18268134084229
H         3.53493113021736    0.67728102784654    1.88034233770731
H        -0.00884541767201   -2.52224567896698    1.09366481111895
H         1.01133826350685    3.52425103695378   -0.11835155106307
H         1.82267572556245   -0.22180070387259   -1.89088532811564
H         3.19954479062262    1.69640613162017   -2.53147885555599
H         5.54742750290492    1.75113960269946   -1.94529396773881
H         5.19350163020506   -4.56670976165098   -3.54375836607148
