26
 energy: -46.154047256154 gnorm: 0.225981214597 xtb: 6.4.1 (79825abcba525fcdf90b791dcacef51065a7a4e7)
C         3.61855929098151   -0.05931008709375    1.00809399792193
C         2.45225417377146    0.08290361365544    0.00544434842979
C         1.47942175075355   -1.05970711963630    0.24721942102746
C         0.64722118358746   -1.92033513665621    0.76374471145159
C         1.87860211574812    1.44129166923282    0.21196867039496
C         1.30976691884831    2.49451944734079    0.27407223828125
C         2.94164105249107   -0.03175576636967   -1.50427559978809
N         3.81777519797255    1.07437486096770   -1.92805839407434
C         5.09924455082726    0.85268417159007   -2.33671830757693
N         5.61557445250020   -0.30634415527125   -2.55850046434945
C         4.88727638917614   -1.43782857612825   -2.24914220620274
C         3.61041761896138   -1.37201048760475   -1.82882995038942
S         2.57825306379876   -2.77415706765115   -1.78221462357655
N         3.50829204488834   -4.08900558896379   -2.18391212944943
C         4.75128566571124   -3.89497051938194   -2.47441395001420
C         5.63200949522624   -2.69443668782508   -2.55727379517755
O         6.80095777292644   -2.77940597312525   -2.91363615855095
H         4.14426789606582    0.90292640189443    0.96083552279031
H         4.29322397518956   -0.88791309923162    0.76619629959754
H         3.26885788248715   -0.12746855203610    2.04458000462770
H        -0.04400390949333   -2.62117149298169    1.17326624591170
H         0.88327070793546    3.47350310300865    0.31600288124953
H         2.01320016124243    0.04928250281882   -2.08796136777266
H         3.45920495183505    1.98573564660346   -1.65875221876011
H         5.67876515540908    1.77509293560159   -2.51536711518130
H         5.27446290183054   -4.84369449506549   -2.67181914380237
