26
 energy: -46.156240523112 gnorm: 0.224468733633 xtb: 6.4.1 (79825abcba525fcdf90b791dcacef51065a7a4e7)
C         3.67562995939253   -0.53375080168974    0.87926754638418
C         2.51367168766203   -0.07851306530254   -0.03090291723903
C         1.30852845715961   -0.98988305528327    0.13478346946862
C         0.15777431941425   -1.59467645966352    0.23491649515547
C         2.05453190450631    1.27383578651180    0.39015571133970
C         1.80123406225535    2.40490315825181    0.69551764604900
C         2.82382403744886   -0.09093779377781   -1.59152836595146
N         3.56615251430656    1.12981912765031   -1.95129058071554
C         4.87974686106922    0.99710493921015   -2.29065797692815
N         5.54665531391945   -0.09372290997066   -2.44704938365616
C         4.90870251782966   -1.30465327251085   -2.26527624423240
C         3.60583109069731   -1.36400494149221   -1.93306221556942
S         2.70469069051129   -2.79982561091205   -1.53316637618905
N         3.68742932083975   -4.02768171013307   -2.06397162440319
C         4.88303576638726   -3.84395106390928   -2.51546064260019
C         5.63990072183172   -2.56194666045033   -2.60172674337191
O         6.81771083915018   -2.61519168362564   -2.93426588906684
H         4.04628606620174   -1.53494971328471    0.62487267824039
H         3.40739063781513   -0.59146520725005    1.93992140155919
H         4.53465728262841    0.14219214723966    0.79918581632641
H        -0.65440835198456   -2.27475762301921    0.11441525689883
H         1.48959235917222    3.33987969688290    1.10875429330240
H         1.89458947030742    0.00169621557112   -2.17221831982417
H         3.11192263512412    2.03651229083137   -1.89419728294726
H         5.37841571001298    1.96475623061563   -2.47390047761631
H         5.34341296861964   -4.71926642938845   -2.99985330531917
