26
 energy: -46.152517434088 gnorm: 0.224351511453 xtb: 6.4.1 (79825abcba525fcdf90b791dcacef51065a7a4e7)
C         3.70616354445373   -0.03134510405742    0.82367335598697
C         2.43403301236362    0.12996655847962   -0.03740802627428
C         1.39595707278007   -0.88267456212767    0.41797500353146
C         0.62930058341468   -1.83660537829592    0.86774224141522
C         1.99744839454269    1.55014840862462    0.05967176120153
C         1.82876824637944    2.71505687961809    0.28606601167200
C         2.76955714612099   -0.14660128317658   -1.56804005462479
N         3.61673983195178    0.96169299931170   -2.04205816135876
C         4.96620003672019    0.79950410959327   -2.14677360051826
N         5.61474155192871   -0.31092627948377   -2.07282211238941
C         4.82091899414266   -1.43580937729080   -2.17704003572942
C         3.48829185129098   -1.43319409970677   -1.98872961323376
S         2.51904361381690   -2.88021346833887   -2.00436632296859
N         3.54699015706197   -4.13387777195816   -2.36047269382791
C         4.82415961978379   -3.96454034456473   -2.44554361609000
C         5.58985982668390   -2.68491506726454   -2.45471145011571
O         6.79806445962259   -2.70257632542852   -2.65616527757612
H         3.69564906451821    0.75195492126837    1.59232963646858
H         4.63088759069519    0.02256519805332    0.23865284099866
H         3.62024545199857   -0.98046599551062    1.36499351300587
H        -0.03001758388199   -2.48368917134940    1.39995811322419
H         1.53967198674694    3.73227289057240    0.44021249722375
H         1.82218753461982   -0.06579947559292   -2.12050784077560
H         3.26792586313676    1.90823208539251   -1.92344323971785
H         5.62896116432002    1.67586189494732   -2.25327327965398
H         5.42405699732003   -4.87888232774017   -2.57539849119527
