26
 energy: -46.151542999702 gnorm: 0.218019271602 xtb: 6.4.1 (79825abcba525fcdf90b791dcacef51065a7a4e7)
C         3.65825314863560   -0.35105224253521    0.94406915206338
C         2.46199661623161   -0.09434388927840    0.00127021380776
C         1.30777411236877   -1.06967999107583    0.16530477854351
C         0.19829466102529   -1.68791915182174    0.46004611560451
C         2.03382875172888    1.28673628354539    0.35656864808065
C         1.58989907348174    2.40012701744427    0.35914416135690
C         2.91994873736014   -0.09587612567766   -1.52259925742579
N         3.73972923050498    1.10029992672571   -1.78308089199974
C         4.97023996928490    0.99056814671239   -2.35937565668208
N         5.57409404237305   -0.11404894690590   -2.63197773436730
C         4.93009611056106   -1.31429159631616   -2.40600905673277
C         3.68691952447934   -1.36990630861237   -1.89338664684373
S         2.67947570292524   -2.74150141159300   -1.52279855525652
N         3.64996630786667   -4.02800568123512   -1.92056077232846
C         4.83851430061677   -3.82527513712773   -2.38243527369714
C         5.59485175802752   -2.60019442784133   -2.77096147277132
O         6.72060063688707   -2.76596517844626   -3.22468331757467
H         4.63876070187030   -0.16140205729688    0.48894311867759
H         3.57703444094439   -1.39945007509105    1.25153524558414
H         3.53388222599937    0.25379955902372    1.84956684487602
H        -0.60530082402294   -2.38856263207132    0.46219983450600
H         1.26707276674055    3.38184463812687    0.63132039369384
H         1.97166263751705   -0.01823965101238   -2.07394744502163
H         3.37281950647740    2.00894207904790   -1.51582891778768
H         5.59282453428420    1.89613046903584   -2.46398348079012
H         5.40649958250526   -4.76323275631487   -2.48435994372504
