26
 energy: -46.149288693342 gnorm: 0.203459556804 xtb: 6.4.1 (79825abcba525fcdf90b791dcacef51065a7a4e7)
C         3.65168561701337   -0.28074559215304    0.86379997142456
C         2.44809614104250   -0.05818391954863   -0.07834513042181
C         1.43490233491685   -1.17323428567817    0.12294684209754
C         0.84668822359943   -1.91653249380250    1.01823937911003
C         1.86637415311782    1.27260555805849    0.24959700710317
C         1.39994346043081    2.36436317985649    0.41460254179228
C         2.87828249728522    0.04229225164052   -1.60698665202036
N         3.77754401355835    1.17935325565426   -1.86994840393322
C         5.09932486923459    0.91431731607572   -2.07234583241676
N         5.61709191255494   -0.23957624829519   -2.31643084148611
C         4.84276072937261   -1.38095506399005   -2.25284446257447
C         3.51974769036721   -1.28532146396470   -2.02513088908187
S         2.49707850395605   -2.69508984578305   -2.00923879777126
N         3.53491687469841   -3.98308441029801   -2.14751947990637
C         4.75816996197480   -3.87579516525556   -2.54653697877541
C         5.59448699102977   -2.64128718158331   -2.52690104810185
O         6.79462029546521   -2.70283692264261   -2.76469439364922
H         4.19007794155362    0.63548765102027    1.13793919303345
H         4.40381194446928   -0.95114631131473    0.43352243922131
H         3.34461582569391   -0.87047706783650    1.73510062576797
H         0.01282593024677   -2.51375499541569    1.30922151110047
H         1.10262637268375    3.38675095163979    0.50621044009373
H         1.96862708621242    0.24835865733274   -2.18950055125393
H         3.41366174154423    2.11279776899343   -1.70277198362363
H         5.77576916041651    1.78057546956436   -2.17538656063509
H         5.37925000380039   -4.77499376690518   -2.68241144352132
