26
 energy: -46.151904380458 gnorm: 0.224677007296 xtb: 6.4.1 (79825abcba525fcdf90b791dcacef51065a7a4e7)
C         3.84349883544154    0.00696942488611    0.82208598569373
C         2.56500483707513    0.04085256038147   -0.04399931087485
C         1.42193745884796   -0.89598853547803    0.31116710594474
C         0.29431370212834   -1.53423695390064    0.45656447914619
C         1.93715377095588    1.37058695140926    0.18957432806521
C         1.50201548954452    2.43641389305186    0.52332083766715
C         2.87298662608164   -0.11581405683872   -1.59722287897516
N         3.71074776636216    1.02547711511754   -2.00506919645749
C         5.03724448341615    0.89334786014949   -2.29013360630217
N         5.57472005989213   -0.27143947019298   -2.40641360370443
C         4.87101257264064   -1.43866529971512   -2.18560319515023
C         3.57925801326547   -1.45949361369249   -1.80837767421892
S         2.64741871711926   -2.91306397419585   -1.57955364022575
N         3.55152719205298   -4.12696439026001   -2.26087124156398
C         4.80099978872117   -3.96638608337196   -2.54390286033215
C         5.58581776982135   -2.69836764854392   -2.54732125437763
O         6.78389972057210   -2.75852424085051   -2.79558486147487
H         4.62783913815868    0.61320913193430    0.35114472517527
H         4.10144431576908   -1.04922209845798    0.95696922302928
H         3.62852778923330    0.48721330079768    1.78353966082636
H        -0.61515754191346   -2.08238449404836    0.55179032294279
H         0.98138869756459    3.32454728130167    0.81008388245554
H         1.94350043070426    0.06330739491653   -2.15689214151508
H         3.34189697717166    1.93822319386565   -1.75502796723530
H         5.57280670306496    1.81207818383711   -2.58628417187222
H         5.25858719356985   -4.90394026536999   -2.89655897256047
