26
 energy: -46.150851306881 gnorm: 0.219749046825 xtb: 6.4.1 (79825abcba525fcdf90b791dcacef51065a7a4e7)
C         3.80739186534319    0.04783977419394    0.81874870800280
C         2.50517085727956    0.17972968468956   -0.00138798916669
C         1.48481835708505   -0.85327136552531    0.44828639459321
C         0.99130236326175   -1.91641768294769    1.01942442095961
C         1.77778892328562    1.47717455287711    0.06569009196626
C         1.05425438177310    2.43175292483395    0.11037802156512
C         2.88645043943735   -0.03514511366426   -1.53120998931636
N         3.83244551513493    1.05939020745065   -1.81016094597418
C         5.15771200923360    0.81634180559487   -2.01730725404155
N         5.66696088904375   -0.34891757044681   -2.22216506929266
C         4.86339300396135   -1.47170024727681   -2.22607899285144
C         3.57685381393782   -1.36696745257866   -1.84501376168380
S         2.57558835573724   -2.78554558580868   -1.70842944527278
N         3.40174281528471   -4.05162721940391   -2.39375136467407
C         4.62444654814121   -3.94757833348565   -2.79530269394976
C         5.50868593956912   -2.76027675133778   -2.61569938457969
O         6.72070278561468   -2.83619272421503   -2.77665256204202
H         4.28290335841073    1.03691118789527    0.80741190380470
H         4.50847237422420   -0.61331224963433    0.29756350865853
H         3.61342545338794   -0.28116744037644    1.84606130908443
H         0.42071436677609   -2.78168700018729    1.26924430973959
H         0.45923087003683    3.31729602310576    0.04851810218115
H         2.02331488915592   -0.10316041909393   -2.20916995166118
H         3.42773196189093    1.98451262337151   -1.91985315306147
H         5.82598278728826    1.69419196839129   -2.05459956337448
H         5.10211548273616   -4.76004761048596   -3.36493983598606
