26
 energy: -46.151051288707 gnorm: 0.228049718128 xtb: 6.4.1 (79825abcba525fcdf90b791dcacef51065a7a4e7)
C         3.61659756429550   -0.25544534306620    0.99944851753791
C         2.45915244548133   -0.01046223182819    0.00642144282997
C         1.36170850524285   -1.04594243080905    0.19030999085501
C         0.47210676611514   -1.87523127443435    0.66033715079536
C         1.85855847992481    1.30752947326463    0.35157632117842
C         1.52121782919568    2.44692542174013    0.50872998084591
C         2.82632145544037   -0.02783505279900   -1.54173415153563
N         3.66699362139111    1.11565355106837   -1.93724901176380
C         5.00590811444518    0.91710856551398   -2.09911707457584
N         5.61415026216974   -0.20248884219439   -2.28799189339467
C         4.86313890907700   -1.36108379106025   -2.28383247148310
C         3.56277800743668   -1.31142048232788   -1.94038256676432
S         2.60556825599061   -2.76505533571773   -2.00555094323377
N         3.62702751018580   -4.04225165360123   -2.28936529353478
C         4.89955107121700   -3.88791076166597   -2.44408031271165
C         5.62942986047678   -2.59875570267714   -2.61489567855114
O         6.82042083566642   -2.63600581110982   -2.89916126099929
H         4.29467848154112   -0.95997339493823    0.50110279633773
H         3.31697461595940   -0.81066467685789    1.89512003542089
H         4.17995677585505    0.66127532547323    1.20798990426599
H        -0.05200704961400   -2.75618385995620    0.95342225800733
H         1.40705578327823    3.50012743731964    0.64943801700764
H         1.93493982355575    0.00927719506937   -2.18463401674755
H         3.40375878673341    1.99903492276437   -1.51060899857075
H         5.53986132116832    1.88288144758937   -2.12694104697901
H         5.46073422813596   -4.82696901823531   -2.57058512024756
