26
 energy: -46.154703873882 gnorm: 0.223610702790 xtb: 6.4.1 (79825abcba525fcdf90b791dcacef51065a7a4e7)
C         3.81714877145195   -0.03217882974923    0.89976040312843
C         2.54803292050724    0.07932486599708    0.02642738466865
C         1.58503858613735   -1.05665578467517    0.33074183642371
C         0.65613976784178   -1.91334949341925    0.65208219351798
C         1.75285929382346    1.31139371393686    0.28459856362752
C         1.08526898429982    2.29882648351303    0.41116394603401
C         2.90605063651368    0.02506387684024   -1.52301757204829
N         3.85358630667763    1.05674617107556   -1.97967462087465
C         5.19953076590295    0.85709095300874   -2.06264867531190
N         5.69431472752438   -0.31827187951044   -2.24387118398573
C         4.84970759169267   -1.41035621738222   -2.26305923802049
C         3.57097731206486   -1.31549938396083   -1.85414141515069
S         2.60140537351308   -2.75798511785462   -1.74137237316845
N         3.43866427250312   -4.03115340621181   -2.39955173247024
C         4.68057626581504   -3.88942969007967   -2.72303750174218
C         5.55559029376795   -2.69478681727066   -2.54696778340395
O         6.75150463197049   -2.69730384983835   -2.81236663212491
H         4.30202076753590   -0.99997360369257    0.71872344115241
H         3.61424858015093    0.04301043883498    1.97374735341544
H         4.45580625966225    0.81760267486174    0.63287484290345
H        -0.22530139470511   -2.51037111597414    0.70951282866686
H         0.44140498742456    3.14945074321367    0.47396298373064
H         1.97488696563854    0.13912485118642   -2.09676234723288
H         3.48538990952733    1.99946730382950   -2.06561178674312
H         5.86418652402519    1.73749440316064   -2.10412085585722
H         5.21611847201378   -4.80144657875497   -3.02992534584252
