26
 energy: -46.151397129080 gnorm: 0.225255748537 xtb: 6.4.1 (79825abcba525fcdf90b791dcacef51065a7a4e7)
C         3.66553300486565    0.19895476418724    1.09127980451014
C         2.49277720182394    0.11570055810859    0.08952572076166
C         1.52296845142830   -0.97078046855082    0.52478126339806
C         0.52579570811690   -1.62822252356340    1.04770881386288
C         1.65976432437678    1.34836287404720    0.02969033617434
C         1.02753160416486    2.36636181393311    0.05574884796959
C         2.98303013129243   -0.13539047924595   -1.40329240951541
N         3.84722745421336    0.97857054998245   -1.83105599728296
C         5.15800008763245    0.77499041658722   -2.14529098522880
N         5.70643737009984   -0.33631344526353   -2.49650435877652
C         4.94159217615636   -1.47146598688441   -2.31534660006149
C         3.72918972796567   -1.43303959907674   -1.73228018083912
S         2.79252513281404   -2.88748700973960   -1.53030527825852
N         3.43202796094384   -4.04796944472338   -2.53004358330370
C         4.63485721373469   -3.88561231520789   -2.97040253659837
C         5.56562378567374   -2.73024046459561   -2.82003242965889
O         6.75643061401555   -2.82837876747522   -3.09022117868356
H         4.26236685800996    1.10553536583210    0.92879004414292
H         4.33960967671978   -0.66398732909821    1.12622928295013
H         3.15529765848920    0.28939396262846    2.05705438547619
H        -0.15630582648349   -2.31220941990516    1.49889729452008
H         0.57534399829916    3.33373106277538    0.01344864247336
H         2.05376757101420   -0.05509682973353   -1.98577226977013
H         3.52396076313878    1.88875531098004   -1.51682794274933
H         5.70300378409111    1.69108499716685   -2.43223897719360
H         5.02459426905085   -4.61595302636366   -3.69667238110582
