26
 energy: -46.156220559821 gnorm: 0.220637985080 xtb: 6.4.1 (79825abcba525fcdf90b791dcacef51065a7a4e7)
C         3.73146760370488   -0.05054476374676    1.04861841449745
C         2.50103086402117    0.02668725906368    0.11810278559132
C         1.52920583345126   -1.10631603458403    0.40494259326653
C         0.43055038287536   -1.79482449586099    0.54259819016193
C         1.76682162878844    1.31669164255232    0.23545954026127
C         1.18502143186922    2.36272985993560    0.29895506448064
C         2.94693505940369   -0.05273551169135   -1.40726999173152
N         3.81372750318319    1.07518128560072   -1.79093969500111
C         5.13899707286851    0.81580956706790   -1.97721980611815
N         5.73541115555901   -0.29866276613529   -2.22495398859820
C         4.90868154558662   -1.40314700811178   -2.27982036675573
C         3.64822161422190   -1.35444886616855   -1.81053153689921
S         2.64258599562184   -2.77649043861626   -1.81734912663767
N         3.60747842091692   -4.07602687881819   -2.18524541147963
C         4.80855319494176   -3.91837670915633   -2.63205619105133
C         5.54596488799432   -2.63703950274632   -2.82755724340982
O         6.60360839835275   -2.61397320523175   -3.44522393985672
H         4.06018591825386   -1.08042369171761    1.23781572374029
H         3.54412880704827    0.49928885657442    1.97751940659071
H         4.54353752226298    0.45273644960752    0.51150542291358
H        -0.36175738026618   -2.42889654381803    0.86951205022714
H         0.67136114079893    3.29985463322116    0.29489701203176
H         2.02817179425669    0.03571564118187   -2.00502347451731
H         3.37263138737114    1.95760774644224   -1.54920702549644
H         5.79196960220659    1.69533857497867   -1.84064359523730
H         5.34110298973838   -4.85289440899115   -2.86833525486713
