26
 energy: -46.150512159010 gnorm: 0.217872622871 xtb: 6.4.1 (79825abcba525fcdf90b791dcacef51065a7a4e7)
C         3.93906792506769   -0.00671229047687    0.68296901149953
C         2.61018048174657    0.02612994544473   -0.10365558106620
C         1.65210731000644   -1.05468832450322    0.36999524938546
C         0.54786420415280   -1.67254648010138    0.68453497031672
C         1.92401045083899    1.29755743988350    0.25633045885953
C         1.45638927746061    2.33709028386844    0.62703386626827
C         2.76728139378807   -0.10502765139317   -1.68163455347470
N         3.61184249254012    1.00074098310208   -2.16611382738165
C         4.96825100653355    0.91892529552004   -2.05759868573113
N         5.59340383106488   -0.20608357550839   -2.10926631037998
C         4.86286626128033   -1.37381737523801   -2.20460896484324
C         3.53283101660874   -1.39405997656738   -1.99976944463286
S         2.51742753912547   -2.80901214796583   -2.02021029888116
N         3.49636612777313   -4.09848388902028   -2.38640955279316
C         4.77576069270632   -3.93953862263221   -2.45683683067585
C         5.56719270692921   -2.67768391611911   -2.38486634787738
O         6.78999405592025   -2.62925566621771   -2.44023383535616
H         4.74310739259793   -0.59962326900758    0.22856933601605
H         3.68796017114347   -0.44013810421419    1.65731846165651
H         4.43651853514662    0.95535522419118    0.85092400978836
H        -0.13168994667648   -2.48042273345748    0.83357773663457
H         0.95502553436793    3.17369036683087    1.06384149664760
H         1.73007353860926   -0.04939494424957   -2.04269359677166
H         3.11067118637109    1.88413883642969   -2.17671948164360
H         5.53821425756701    1.86340722352935   -2.01644972020096
H         5.38421397044297   -4.84557102163367   -2.60397726594238
