26
 energy: -46.153821816133 gnorm: 0.238690527865 xtb: 6.4.1 (79825abcba525fcdf90b791dcacef51065a7a4e7)
C         3.66626837379581   -0.53966972930785    0.85449841148333
C         2.55183240564424    0.00889909986891   -0.06359930277210
C         1.35296707770876   -0.84801918213733    0.30900025715602
C         0.41245329079191   -1.62126845077652    0.77542941296430
C         2.16149383782819    1.41671091438125    0.22388779375225
C         1.96223506867340    2.59660872122844    0.29357438079915
C         2.72351281567065   -0.10613496879221   -1.64131716468506
N         3.51740511012140    1.00225357582208   -2.19983103704985
C         4.85900289570499    0.88141668212814   -2.40918057099134
N         5.58188754502678   -0.18445181407288   -2.38698377320984
C         4.83243530058296   -1.33544225459510   -2.24584574190195
C         3.52367175507832   -1.37982542808226   -1.93515157727416
S         2.52890457457399   -2.80750779371678   -1.85956700991556
N         3.64733582209770   -4.02562100154528   -2.00264666257161
C         4.88977321271714   -3.84197893711577   -2.30214454762631
C         5.64292326309659   -2.56717105673749   -2.47949046237906
O         6.86581778645124   -2.58616966145992   -2.54893132067181
H         4.54472242747961    0.11528970785669    0.91653526350524
H         4.00876282734444   -1.52033087310820    0.50625832313445
H         3.30182564897210   -0.73638568968942    1.86925169564771
H        -0.29943153087477   -2.34377714779518    1.10386938038897
H         1.81185011793392    3.63472446197432    0.49794239022354
H         1.71548394024524   -0.15295497373486   -2.07828906296985
H         3.09127842315664    1.92396139278923   -2.22323343032972
H         5.32932263795847    1.87002205835153   -2.55080052280997
H         5.47313081695546   -4.77600964761871   -2.29574532640307
