26
 energy: -46.147359029244 gnorm: 0.221475747889 xtb: 6.4.1 (79825abcba525fcdf90b791dcacef51065a7a4e7)
C         3.56185675280835   -0.36681280405604    1.06026619068126
C         2.39190672650003   -0.03951269772511    0.10638451131614
C         1.18647054046474   -0.96149207341962    0.19179550547854
C         0.28127177815979   -1.89502563467688    0.09605085204677
C         1.95724465605080    1.35140552428529    0.41193728210873
C         1.85174891117957    2.54011816445823    0.52397302759717
C         2.87146912629288   -0.09984789087248   -1.40962346641456
N         3.80335110785374    1.01723096154252   -1.64298730466365
C         4.92296776754772    0.94400883126254   -2.41720332600062
N         5.43966125475206   -0.15350467269417   -2.85035746331515
C         4.76932381845577   -1.30610842789496   -2.49184679264163
C         3.60022666716348   -1.38111746471143   -1.82931510731903
S         2.74104624193762   -2.86560498382160   -1.52656521517479
N         3.63147507923813   -4.05459225536084   -2.26724448520884
C         4.84050151141397   -3.84459950415927   -2.66878176784903
C         5.57518578398191   -2.54705929539050   -2.68999791788957
O         6.78669563690456   -2.49057840808562   -2.86235736835053
H         4.06282015162301   -1.29551173958531    0.75851145933843
H         3.20032685935757   -0.41529732836174    2.09332730841235
H         4.32633816592132    0.41480723563079    0.98359691901378
H        -0.51634460312396   -2.55677288511876    0.34619141967441
H         1.66413212072496    3.51478456740758    0.92006840307809
H         1.98682646019574    0.05999894968568   -2.04295994995820
H         3.83321599852439    1.89943719510478   -1.14049634001276
H         5.39813951140568    1.92470209175843   -2.59341342303475
H         5.49692558853969   -4.69637476937663   -2.90615645246436
