26
 energy: -46.149144094043 gnorm: 0.218681804400 xtb: 6.4.1 (79825abcba525fcdf90b791dcacef51065a7a4e7)
C         3.58756217870678   -0.27362779822967    0.98946208519923
C         2.40867216423838   -0.06634669422244    0.01321847489428
C         1.29997401352323   -1.10419819643507    0.07701603976060
C         0.28568994690546   -1.64644191775981    0.69121174616761
C         1.78293291881755    1.27107813411780    0.20477100806114
C         1.51277772345293    2.43821595992949    0.24381696840934
C         2.91976685753053   -0.09721784259872   -1.49334378562405
N         3.81171013257277    1.05578418050328   -1.70723958537731
C         5.03927200568098    0.87886372982667   -2.27301727786531
N         5.61345209747981   -0.18955759803804   -2.70651889230220
C         4.85160053744480   -1.32354285937742   -2.50642585442791
C         3.64954112231705   -1.38089017147092   -1.90382550216351
S         2.68986956724361   -2.79322176719422   -1.56045737889937
N         3.68454025578108   -4.03090219383615   -2.04412814345397
C         4.89394336864076   -3.86440151622620   -2.46448000717233
C         5.61549545900696   -2.58657451652305   -2.72970148359743
O         6.79856108003865   -2.63475534173405   -3.04384847882922
H         4.51680067186326   -0.53333681239121    0.46642383286348
H         3.28704382896428   -1.07373233833465    1.67487534608944
H         3.77801333805796    0.64802336415592    1.55118033309667
H        -0.66471537351364   -2.12765689543838    0.73403125494830
H         1.22980419661584    3.46088725964245    0.37084298358526
H         2.04715983889725   -0.02782902175382   -2.15892695219677
H         3.51817586643884    1.93938689586102   -1.30133220862426
H         5.74425111720961    1.72653988414193   -2.21781718834145
H         5.42372001056527   -4.81024971054885   -2.65804733441203
