26
 energy: -46.152042447179 gnorm: 0.220807073253 xtb: 6.4.1 (79825abcba525fcdf90b791dcacef51065a7a4e7)
C         3.52436928927680   -0.20539126218878    1.10283540265973
C         2.44181098531779    0.04796055795719    0.03060452184313
C         1.27129592562642   -0.91843802532972    0.11051515956011
C         0.48459465567211   -1.87201821196164    0.52503018729170
C         1.87955394979724    1.40794025783605    0.25703191096581
C         1.54503824439010    2.55169861925874    0.38600926931542
C         2.93865552900821   -0.06641953737224   -1.47669880403731
N         3.77170278590075    1.09601814634634   -1.83095686499740
C         5.06410316623486    0.90690483758927   -2.22115015977736
N         5.61665362724943   -0.21888115965612   -2.51513048530071
C         4.89890791489504   -1.39243606388378   -2.39686140354152
C         3.65086002951764   -1.35762859916488   -1.89434010119444
S         2.68665588093867   -2.80043330345198   -1.74542184814956
N         3.80248384572560   -4.02784253143755   -1.68580162953739
C         4.99072064270834   -3.88065381502671   -2.16902296440129
C         5.54676089424267   -2.66546793733099   -2.83081161862531
O         6.35015350395946   -2.77639033867745   -3.74891320643289
H         4.39045854184856    0.45000472818833    0.94520462480047
H         3.87179051609709   -1.24036911190603    1.01124266752481
H         3.16409299208167   -0.12935484884087    2.13514317973621
H        -0.23268671161141   -2.65297659738398    0.63585919139015
H         1.17275634789366    3.51574760148459    0.65818927270931
H         2.03345212993344   -0.06816722865549   -2.10108852421735
H         3.50041892802230    1.89195279084952   -1.26124638216180
H         5.67096387287714    1.81824934768546   -2.36175145315886
H         5.67483979183401   -4.74188329465614   -2.11402127304104
