26
 energy: -46.154345325688 gnorm: 0.226752483210 xtb: 6.4.1 (79825abcba525fcdf90b791dcacef51065a7a4e7)
C         3.61680776062200   -0.41428098390453    0.90749199349655
C         2.44833957213405   -0.03595858676242   -0.02917921162551
C         1.17751920220172   -0.83681703916054    0.20332615867738
C         0.05792821084870   -1.48496736628981    0.36597276952149
C         2.22616125300206    1.39546596098627    0.31521544125468
C         2.03768066320024    2.52653552533364    0.66432260376135
C         2.72536260904246   -0.18492595605297   -1.58897650281001
N         3.49731161055609    0.95627538843101   -2.11097469092961
C         4.85092099140178    0.95484462811725   -2.27238408254204
N         5.50690472691451   -0.15124114515795   -2.34580178679611
C         4.83533974216505   -1.35679339130592   -2.30083678480871
C         3.56220878967281   -1.43733969433158   -1.87186987073492
S         2.72966361655419   -2.94373933353079   -1.60507339161087
N         3.87309977573077   -4.11646007897786   -1.87421987607961
C         5.04006570889403   -3.87198754113090   -2.36969716799704
C         5.66444905724881   -2.54751940027750   -2.65209985190397
O         6.71049515083025   -2.44966670444163   -3.28207319488733
H         4.35041558999721    0.39203111070950    1.03470172978041
H         4.08978435583001   -1.35118617565895    0.59321235824788
H         3.11538473483390   -0.65078423496002    1.85294482696769
H        -0.87206326901451   -2.00192008521348    0.43340683826540
H         1.88859592942318    3.57747456613739    0.78828662353755
H         1.75441698228644   -0.21510081306354   -2.10435289837054
H         3.06000566672842    1.85808177550227   -1.94609389767555
H         5.43296993963885    1.89275198894647   -2.28447789752337
H         5.72001153274143   -4.70445012670407   -2.60936387855865
