26
 energy: -46.148766702567 gnorm: 0.223135699048 xtb: 6.4.1 (79825abcba525fcdf90b791dcacef51065a7a4e7)
C         3.60319023789974   -0.37219390369234    1.03652121038259
C         2.43423056491736   -0.00618345962789    0.09558107258287
C         1.24648115013048   -0.90456977126428    0.39983559287306
C         0.46757244292035   -1.77706178876556    0.97611302794873
C         1.98939603720328    1.41320950037537    0.16186086693935
C         1.89883098563178    2.60698693449130    0.22027772146440
C         2.78871984739670   -0.15180032363263   -1.44877436907597
N         3.57856242672004    1.01177812312771   -1.88804852921290
C         4.89343707135380    0.86115850450542   -2.21474686684508
N         5.59743752372775   -0.21629503682362   -2.16368026917060
C         4.85717522553872   -1.38071384181545   -2.11349870190191
C         3.53492391319219   -1.42373845436070   -1.86618694144685
S         2.57933548062015   -2.87226586538517   -2.01508554578190
N         3.68881742419846   -4.01894713316547   -2.47261359632556
C         4.96121864120866   -3.84394674707851   -2.60468960125944
C         5.70184982728497   -2.55556341851429   -2.48077207788827
O         6.87957475824837   -2.46547592032505   -2.80558314362174
H         4.38273158106621   -0.95455052848925    0.52890125610538
H         3.22236428988279   -0.86737662842094    1.93654096373960
H         4.06965268766812    0.58318063928735    1.30281459393037
H        -0.42209240109187   -2.31961886673813    1.20150139290050
H         1.66110636035062    3.64766578208509    0.16987185567914
H         1.87810589029162   -0.21163222001171   -2.06233866171169
H         3.09159395052013    1.77499810131877   -2.34851991243856
H         5.35156954073659    1.83877329352386   -2.44492381459087
H         5.47393529188135   -4.78960137927165   -2.84052718450204
