26
 energy: -46.149605904199 gnorm: 0.220411705885 xtb: 6.4.1 (79825abcba525fcdf90b791dcacef51065a7a4e7)
C         3.41002158026836   -0.31053538758435    1.09003517866471
C         2.38328193825606    0.06321911138616   -0.00171203238028
C         1.24117769191743   -0.89421562606750    0.29717599197358
C         0.26691406857398   -1.59130308101896    0.81187614010429
C         1.77762178763897    1.41380241823462    0.15968075714920
C         1.47233835174692    2.56373481241378    0.30520263815220
C         2.95010331201420   -0.13507299261896   -1.47524329926436
N         3.75874888691251    1.03919133533522   -1.84662382387820
C         5.06441536154074    0.88668534504571   -2.20758139999284
N         5.68748161184689   -0.22908757436778   -2.36873287462896
C         4.99246361659562   -1.41321986206590   -2.22327390443902
C         3.72406503748428   -1.42386494492372   -1.77336894647326
S         2.80730382805873   -2.88806674677255   -1.55152740734373
N         3.71011640102951   -4.08932899288350   -2.25655116705613
C         4.91060194497813   -3.90919769809272   -2.69639345187523
C         5.66384211605811   -2.62487471851578   -2.77985260546171
O         6.71088992248619   -2.53687942074451   -3.40961582766334
H         3.32754106258015   -1.34863262358602    1.43652190481350
H         3.36909259886315    0.31986034057995    1.98513066491903
H         4.46465415209732   -0.26983409247748    0.79451286852430
H        -0.56272982141475   -2.25794575786069    0.74902561466849
H         1.05248762110901    3.54301279374542    0.38770235977598
H         2.04599720460821   -0.14749295436383   -2.10110003830526
H         3.23782872086776    1.91002816873551   -1.89092180350871
H         5.66069200359675    1.81088113664833   -2.30199411758137
H         5.50177042430686   -4.72966560082278   -3.13241256049115
