26
 energy: -46.149341897597 gnorm: 0.224515593356 xtb: 6.4.1 (79825abcba525fcdf90b791dcacef51065a7a4e7)
C         3.82340227944794   -0.11761611857123    0.80671719407835
C         2.52321892325938    0.12196064094939    0.00801517766456
C         1.48022276523747   -0.93601798408947    0.32935250532568
C         0.57680020005268   -1.85454290159735    0.52979304396480
C         1.78446421432461    1.39473652520558    0.23435595817274
C         1.02386154862738    2.31965481528063    0.18211758971079
C         2.91445399101544   -0.01889631933751   -1.52788686383350
N         3.89940493364374    1.03738889567648   -1.81919609854038
C         5.19957811814205    0.81895557436236   -2.16582266034197
N         5.63972822192270   -0.31717003344152   -2.58369471208695
C         4.84927374155467   -1.42167468350724   -2.33544322986692
C         3.60769770366034   -1.35408831822154   -1.82038617080861
S         2.66549197029227   -2.76764581222402   -1.43612678700791
N         3.47446582888178   -4.02892017440656   -2.15020542943567
C         4.66036927152736   -3.86939073742908   -2.63523887402248
C         5.58066770208474   -2.69662510763295   -2.59659591628721
O         6.74380813508424   -2.69702782956035   -2.98098916032394
H         4.60091252741034    0.51263088072806    0.35641896363941
H         4.08254760522545   -1.16676567529093    0.62672053382637
H         3.73882701530159    0.08532871553830    1.88044915015444
H        -0.28068968365805   -2.33686017242462    0.94058834179874
H         0.34631269787368    3.14312883702642    0.25200531836642
H         2.03811400408648    0.16274497857358   -2.16686528862648
H         3.68459954844560    1.94509888124297   -1.41720336866937
H         5.80791533874321    1.73427941386979   -2.26929030271465
H         5.08183603026996   -4.75416023568151   -3.13754268518064
