26
 energy: -46.152341561706 gnorm: 0.223102018821 xtb: 6.4.1 (79825abcba525fcdf90b791dcacef51065a7a4e7)
C         3.52830424724660   -0.48064008020368    0.93172297689748
C         2.39516731478380   -0.07695405697107   -0.03721303995978
C         1.19356349448328   -0.97707351301881    0.20016995016516
C         0.01762873705402   -1.38006902233215    0.59362750726921
C         2.00487884823523    1.34430525326611    0.17407832772321
C         1.97406241628989    2.53468339537080    0.31107961608852
C         2.81572849336855   -0.16537483686326   -1.56927398147262
N         3.57744428633127    1.03177999271055   -1.96593158115188
C         4.82041295030571    0.90373014564605   -2.51085867492247
N         5.50050383435762   -0.17536469401665   -2.69019433990292
C         4.88269509509461   -1.35079789179568   -2.31197909883698
C         3.63386962361994   -1.43730684306544   -1.81769790222661
S         2.72887626334838   -2.90515709009477   -1.57284206200224
N         3.72096561218141   -4.04235482550309   -2.26400055830724
C         4.94633061160355   -3.77594140956859   -2.57153685355231
C         5.77333625600907   -2.54178121916891   -2.44218462577345
O         6.99772465417758   -2.58043825862501   -2.43646809636566
H         4.42510711474404    0.03710025696318    0.56814144959972
H         3.68716297581359   -1.56254418587384    0.86451208924436
H         3.26725103079509   -0.13976891447926    1.94013656641474
H        -0.71962683260509   -2.03542620467939    0.99814305010427
H         1.81671289227692    3.58389487142740    0.43938636493504
H         1.84263117352588   -0.16053560019420   -2.08144285958214
H         3.35794116338549    1.96273145941936   -1.62413534081832
H         5.22523743890086    1.88070104202058   -2.82746957475239
H         5.54018619621022   -4.66616065360478   -2.83154773665856
