26
 energy: -46.153803435098 gnorm: 0.216213435729 xtb: 6.4.1 (79825abcba525fcdf90b791dcacef51065a7a4e7)
C         3.90344138061241    0.32033043415258    0.83947519038714
C         2.58572242219061    0.14713997436702    0.05244247174478
C         1.69857484318543   -0.97986735087351    0.55567311621357
C         0.67313863231944   -1.73008608613125    0.84840026924194
C         1.81149209836511    1.41259785140976    0.17944989248483
C         1.07740079362042    2.35906250881366    0.13435318662256
C         2.88064406666472   -0.11996479375279   -1.48819924038512
N         3.72814700033153    1.00190210005968   -1.92851881802864
C         5.07134070026109    0.79348224814917   -2.03198498116243
N         5.60158895317239   -0.38038439227115   -2.03409619432488
C         4.85117661752895   -1.53471422251616   -2.13793053470796
C         3.52708749857513   -1.44234103218691   -1.91517969739984
S         2.50028859598428   -2.84793751252710   -1.97462921863915
N         3.53075144623733   -4.11397590773078   -2.27538347261623
C         4.77564758982462   -3.99536978279078   -2.59669365726934
C         5.58159100196536   -2.74105124205166   -2.62770827706312
O         6.77494539852141   -2.73645653276908   -2.90436358542276
H         4.54571988693987    1.15553008549594    0.53219385494428
H         4.45666201144110   -0.61980544532888    0.73768446859642
H         3.66694307161147    0.55300250222031    1.88406705068221
H         0.11508496173319   -2.59322101445768    1.13167720302203
H         0.42484907251766    3.20447406961094    0.17336277740506
H         1.94568130957208    0.06711601847311   -2.03601688670660
H         3.36493127902454    1.94991525413728   -1.96049258070130
H         5.73525731970648    1.66964512457860   -2.13273612250048
H         5.34030094644034   -4.92499607860175   -2.76909419790509
