26
 energy: -46.144610699342 gnorm: 0.224331616086 xtb: 6.4.1 (79825abcba525fcdf90b791dcacef51065a7a4e7)
C         3.71694546903411   -0.32125721382424    0.96612356202981
C         2.51920394299093   -0.06641818417292    0.02470388775860
C         1.29760812187792   -0.92677481528630    0.30382315732172
C         0.06291424588276   -1.29672364195736    0.50056073773187
C         2.03422805305808    1.31305824661107    0.30539998573844
C         1.83191430497938    2.48066654040848    0.48561966793732
C         2.78797727430388   -0.26251484960859   -1.53131913091915
N         3.48300391545102    0.93807112308923   -2.02756420079871
C         4.80031151089826    0.94857198821485   -2.37814061795323
N         5.50268907673642   -0.12021618394456   -2.53139907033932
C         4.91794970035052   -1.32190875562407   -2.18442297355824
C         3.61716395705515   -1.50083278036676   -1.88894813638722
S         2.67811599426930   -2.96651554392651   -1.82966365748491
N         3.72728510319584   -4.00979909603716   -2.58196920766300
C         4.99960790617178   -3.79927046414131   -2.64478989345246
C         5.74883904373864   -2.55673781114572   -2.30042525752776
O         6.96038079720095   -2.54833299647975   -2.11945584065376
H         4.48773731155386   -0.92082860646227    0.46522832305428
H         3.42793915377220   -0.84055352670461    1.88649119345477
H         4.21762880173201    0.58326430403536    1.32998743611383
H        -0.73601940957273   -1.96629739708501    0.72427402264591
H         1.54253007455747    3.50659795370897    0.56169667844511
H         1.79514510150302   -0.26490854192296   -2.00411645758989
H         2.78262724254658    1.62694719983420   -2.28563239060554
H         5.21264409145658    1.92722884618949   -2.67948768243992
H         5.52257151959149   -4.64647155389668   -3.11544877424959
