26
 energy: -46.150287618435 gnorm: 0.218160208598 xtb: 6.4.1 (79825abcba525fcdf90b791dcacef51065a7a4e7)
C         3.89889744564264   -0.08535442383600    0.89006240896547
C         2.56232724182385   -0.06277259955327    0.11619623837850
C         1.59638986661959   -1.12390125240426    0.61758271503275
C         0.49022061880214   -1.77119113463969    0.85725367101715
C         2.01454485844893    1.31106748575581    0.28779173540043
C         1.78567128694627    2.48154551058059    0.40744621767437
C         2.73011689121790   -0.16127461864859   -1.46305821564384
N         3.49336769759681    0.93951194742164   -2.07660937745869
C         4.85238887091695    0.85540727105538   -2.14219333960921
N         5.53956077299590   -0.23247255809762   -2.08351779059489
C         4.80658782682993   -1.40250739953365   -2.09563137008204
C         3.47429232429464   -1.42561339897078   -1.90637609378296
S         2.48880511664497   -2.85141995635882   -2.07796377075172
N         3.55941100193613   -3.99507210000139   -2.62661925544087
C         4.83193714190477   -3.82769379452705   -2.76710336688482
C         5.62107547049495   -2.60728614785877   -2.43290645515114
O         6.83447415357406   -2.53247455075149   -2.58364084889449
H         4.39540262876281    0.89141262422930    0.82752682134283
H         4.62044516736470   -0.78416685665528    0.45268390430299
H         3.68965088035993   -0.24574807812436    1.95389023688378
H        -0.35061418952561   -2.33477330869890    1.19198278967393
H         1.70841131434572    3.51297673271197    0.67623375438366
H         1.69848766108058   -0.03860899573936   -1.82354821897188
H         3.11631272786995    1.83495018081197   -2.37274590474543
H         5.41149649153177    1.75234500970775   -2.46078213839252
H         5.41656557755665   -4.70333238745199   -3.08994552416476
