26
 energy: -46.153650822800 gnorm: 0.223157155402 xtb: 6.4.1 (79825abcba525fcdf90b791dcacef51065a7a4e7)
C         3.94806987060535   -0.03893381350231    0.64249426211062
C         2.58249911895378   -0.02541401854783   -0.07919294928056
C         1.62474278189108   -1.12024052904294    0.36180039303187
C         0.61220244268298   -1.83240666955435    0.77121241461481
C         2.00451613207843    1.30024384234947    0.27508663563346
C         1.55590835223583    2.39622825725733    0.46025770955385
C         2.74903065888656   -0.09241419204637   -1.66023022404188
N         3.52625971539180    1.09231380265381   -2.06404015447002
C         4.87081135353900    0.87284228011324   -2.01580586135886
N         5.53717101940799   -0.22191157845018   -2.14468312008214
C         4.80899001412819   -1.39083217373239   -2.24344883582916
C         3.47594014415356   -1.38158841899008   -2.05836685361407
S         2.45599003544160   -2.79126531143822   -2.13624198149858
N         3.55742217102451   -4.02464623282160   -2.28039044524928
C         4.82778952920449   -3.88838958201245   -2.46660257172957
C         5.62712806620883   -2.63340432804711   -2.36714600946967
O         6.85043312651993   -2.68193850465733   -2.32444762612943
H         4.69731277188800   -0.69975414324407    0.18812269141134
H         3.72081798623559   -0.44483480620847    1.63439690689057
H         4.41151049111705    0.95150236251451    0.71664860530066
H        -0.11315592097947   -2.52558831564170    1.13180369213442
H         1.22101888004058    3.39844885818285    0.61984816045186
H         1.71728254167015   -0.04371851335960   -2.03756736592247
H         3.16389758185726    1.95746456504649   -1.67431618766681
H         5.49416933211946    1.78112851944410   -1.94482416943766
H         5.42308035635569   -4.79821208451900   -2.64156615017297
