26
 energy: -46.148259703130 gnorm: 0.221297824893 xtb: 6.4.1 (79825abcba525fcdf90b791dcacef51065a7a4e7)
C         3.63318705804495   -0.28667344525564    0.92582042627462
C         2.49842599125691    0.08471313990235   -0.05407142256382
C         1.41568060208922   -0.96671539171772    0.12642217392875
C         0.18870959987308   -1.30828314268182    0.40554656677336
C         1.82479712061311    1.37318196977834    0.26689485930396
C         1.25717566719036    2.40607583808008    0.48519569662326
C         2.91261470527567   -0.07923122996840   -1.58164158675904
N         3.71902426044283    1.07849419163024   -2.00602745191978
C         4.99890635065568    0.85450689146316   -2.41839248860824
N         5.61878520844876   -0.25952629753404   -2.60226966736705
C         4.91262118185441   -1.40666476010336   -2.29931204930018
C         3.65813168459568   -1.39834304734473   -1.81192144923950
S         2.77965933319988   -2.83571426721567   -1.36942624156571
N         3.71365127562937   -4.05566336165655   -1.99755305130296
C         4.83058526898164   -3.84972196098110   -2.61165455538923
C         5.69239658196491   -2.63306251082588   -2.64068473346534
O         6.86118502405919   -2.82879366224440   -2.95096989960925
H         4.58431107715839    0.22483002262037    0.73029737257778
H         3.82974979588640   -1.34202253162133    0.70702533996064
H         3.37400685523417   -0.13348380488096    1.97966977698944
H        -0.46219368555695   -2.10550065272159    0.68382843444589
H         0.73702798478768    3.30475874347916    0.73794385705402
H         1.99359617534275   -0.04302779300366   -2.18442929660171
H         3.30716612810019    1.97291603767098   -1.75691028176508
H         5.45998730717070    1.81338832186746   -2.71258326752769
H         5.36234051203297   -4.75694339524293   -2.93868061910692
