26
 energy: -46.150476006696 gnorm: 0.210986784591 xtb: 6.4.1 (79825abcba525fcdf90b791dcacef51065a7a4e7)
C         3.78605464909836   -0.06148759062831    0.83084897339380
C         2.55407387350266    0.00160009691466   -0.09868963635094
C         1.64000748414995   -1.19819171671768    0.08945847513967
C         0.73335107401829   -1.74568167884982    0.84989630331820
C         1.73652812466100    1.18419993750014    0.28863931107013
C         1.07190214861380    2.16994285797130    0.44129030982957
C         2.93711430919623    0.03605132244203   -1.64270835293874
N         3.88524295505560    1.14009823431600   -1.87262218154087
C         5.20801676141157    0.87004158314027   -2.06144024158213
N         5.70142585420449   -0.28977789699789   -2.32695257920702
C         4.81571729991870   -1.34614684075405   -2.40429994384828
C         3.51969474282568   -1.32408873001406   -2.04208216548417
S         2.45789701906689   -2.70471320560873   -2.03842875647069
N         3.47292248195308   -4.01500248893474   -2.12801296367986
C         4.74561904728297   -3.87225766983251   -2.29215139483873
C         5.54755814694099   -2.64003057132441   -2.54181467406469
O         6.73588762727239   -2.70706495626129   -2.83169987437101
H         4.21496921193673   -1.07149902842308    0.81057194450186
H         3.41605051567875    0.25351338632197    1.81275590358404
H         4.58161691603784    0.62820386770594    0.52647047448797
H         0.19140534578259   -2.57827323539872    1.23688179329444
H         0.50130812336369    2.99396551641643    0.81206696713163
H         2.08898446366636    0.22959973294595   -2.31536989156596
H         3.60629254617755    1.99166219981530   -1.39439377656896
H         5.94011068362630    1.68380275229489   -1.91851121673234
H         5.27877932857100   -4.83583921654772   -2.28881563900078
