26
 energy: -46.149458102859 gnorm: 0.224724164109 xtb: 6.4.1 (79825abcba525fcdf90b791dcacef51065a7a4e7)
C         3.69218284400205   -0.18549190414379    0.88218293414900
C         2.47172264080571    0.09572147298821   -0.02180524484280
C         1.23543459947801   -0.77609696446774    0.12632281910741
C         0.22214094116644   -1.59112494377633    0.22120230834289
C         1.96017621793616    1.43377365817871    0.38425353471072
C         1.27789965992809    2.32047464922759    0.81434557255228
C         2.92533052870840   -0.02898464787756   -1.54186738241572
N         3.85661515612417    1.07665730915712   -1.82645951183058
C         5.10827034640156    0.84110902974712   -2.31245301604465
N         5.59345810317995   -0.30162180586582   -2.65580362022584
C         4.83452358267409   -1.42812039462071   -2.40801959182966
C         3.61715532102207   -1.36418304058751   -1.83767822929236
S         2.73454390832090   -2.82883917977313   -1.50702556632658
N         3.76789453032891   -4.08606518487013   -1.83372005743373
C         4.98930171958412   -3.93487759296244   -2.22407995736427
C         5.56263740686161   -2.67649041091438   -2.78226414887337
O         6.58656411924210   -2.70322328866499   -3.45421164289732
H         4.63121984825424    0.28972600148957    0.57092836603796
H         3.83603243327306   -1.26726073522687    0.78547003942890
H         3.40675046195543    0.12046980187957    1.89517636389855
H        -0.56913200902093   -2.29838130305329    0.11948119398365
H         0.80676113219082    3.11557393772791    1.35091972092100
H         1.99572762424694    0.07217298711695   -2.12054201984341
H         3.51225820529031    2.03016636831404   -1.76388408085590
H         5.72477105225691    1.71654527598425   -2.58103394801609
H         5.49781722296110   -4.88873196539613   -2.43463690844432
