26
 energy: -46.151165645090 gnorm: 0.225496916336 xtb: 6.4.1 (79825abcba525fcdf90b791dcacef51065a7a4e7)
C         3.51058791426862   -0.38550620950984    1.06461352668392
C         2.47231727716654    0.00824678464863   -0.00904906109922
C         1.28101939263836   -0.93206808671070    0.07482419155153
C         0.23377854872233   -1.67095931594594    0.31433019812242
C         1.99270698402086    1.39732222035145    0.23051413278354
C         1.49751675329807    2.45772329954751    0.48946450116264
C         2.90284804182656   -0.05309973000823   -1.53966348055378
N         3.80188372531849    1.04455720208568   -1.93666722490396
C         5.11196542867264    0.93803048241750   -2.29812452843133
N         5.63326750669799   -0.21245250125473   -2.55063909647120
C         4.90570706705376   -1.36295204976001   -2.31958888217666
C         3.62017528524891   -1.35260114997169   -1.92126281538405
S         2.75622474668848   -2.80193810483261   -1.48933276445429
N         3.78372454975685   -4.07806967216612   -1.75558904521357
C         4.92313221819805   -3.89624606642118   -2.33504085857691
C         5.57735230404489   -2.62338594596470   -2.75414096266165
O         6.59152884970210   -2.65093598118288   -3.44068369923225
H         4.57862843037563   -0.20407948733629    0.88889854428605
H         3.45936104066199   -1.44081006182997    1.35440564721265
H         3.26396557092364    0.18813384600949    1.96536565825436
H        -0.61534096014113   -2.31466982250952    0.35044760353500
H         1.06447441614546    3.43013587442648    0.58409178951927
H         1.92914522430943    0.05166777583608   -2.03984880776294
H         3.47186550932975    2.00422217218766   -1.89414613176951
H         5.62203645312997    1.90567656504465   -2.44673834097202
H         5.47388534708706   -4.83851739468130   -2.48186097853576
