26
 energy: -46.155382486642 gnorm: 0.228742016848 xtb: 6.4.1 (79825abcba525fcdf90b791dcacef51065a7a4e7)
C         3.60295936493717   -0.47938802312797    0.90670027508781
C         2.42852714003311   -0.03834417625894    0.00559653032497
C         1.20903490930674   -0.93846796674908    0.11975994267205
C         0.15917388665116   -1.67173280366072    0.36501750049578
C         2.00752809973428    1.31567130250443    0.45985307230403
C         1.92358302792681    2.48928038554752    0.68857571715478
C         2.81437606677265   -0.07784305941124   -1.53760179405195
N         3.67029899900271    1.07220579070689   -1.87747154344526
C         4.92143436592331    0.91420929860444   -2.39516913288402
N         5.46156419713526   -0.18537271467081   -2.79305067412406
C         4.79344181154627   -1.32225201402987   -2.38378848972747
C         3.53408340291382   -1.37802638936583   -1.91233504357646
S         2.72476426769264   -2.87092468341583   -1.52528347796079
N         3.70683621140219   -4.05501894388665   -2.14867380999124
C         4.92012627302501   -3.81293942282959   -2.51799587536784
C         5.65898725809587   -2.51994509388158   -2.59591767082580
O         6.85982140409708   -2.47217902244634   -2.83334080531690
H         3.98020824990595   -1.47176190975570    0.62852891563752
H         3.22264383275170   -0.49798063510484    1.93397058957450
H         4.45861384111055    0.20239322311019    0.84135776809767
H        -0.58276005680311   -2.43105448872287    0.46318177209203
H         1.75002787830281    3.45290058927537    1.11680569858501
H         1.88662001640893   -0.00413927396286   -2.12334510217523
H         3.30489235799953    2.01490771571685   -1.78016796126139
H         5.41669971120770    1.87667878591834   -2.61187672606140
H         5.48909742948072   -4.66156755281088   -2.92892473982998
