26
 energy: -46.149613044407 gnorm: 0.226650619836 xtb: 6.4.1 (79825abcba525fcdf90b791dcacef51065a7a4e7)
C         3.95620200211993   -0.08561035655799    0.74699083933993
C         2.61071194371735    0.03985694834764   -0.00114895168204
C         1.67361788252436   -1.06210817403856    0.46569686030495
C         0.84615869028875   -2.02909045624649    0.74905759645081
C         1.92036061108818    1.31246318853390    0.34646508224297
C         1.45356906950104    2.29941314975199    0.84119181113286
C         2.82088314761985   -0.01014315349416   -1.57760976256451
N         3.62135069397209    1.13032966272108   -2.05646395464817
C         4.93678947407914    0.87420832313536   -2.30613587732996
N         5.56351617804346   -0.25038906376873   -2.26582567973404
C         4.81950803521698   -1.40481725896969   -2.12396299008691
C         3.49359783520375   -1.34897377499407   -1.89989516219073
S         2.44003260136916   -2.70229341419172   -2.20333865275216
N         3.45296456505681   -3.93957926555204   -2.64859429383917
C         4.73859840149050   -3.86563600437349   -2.55504168645522
C         5.58385411451776   -2.68353347094519   -2.22038055117328
O         6.79614343172689   -2.72023110781119   -2.04815428584324
H         4.26370417182779   -1.12738018419194    0.90402586678131
H         3.78205252262050    0.34470492527052    1.73934692770893
H         4.77213804051437    0.43383287995039    0.23156189255387
H         0.12454740681883   -2.81387649071679    0.74133381243511
H         0.98175786061842    3.18736945250977    1.20312273241067
H         1.83600410576368    0.00575722220520   -2.06650567548814
H         3.05414756425615    1.90566385491053   -2.38633426408603
H         5.46102671018653    1.78346660163105   -2.64822089710889
H         5.24705659486019   -4.64509749209977   -3.14382897093142
