26
 energy: -46.150899350626 gnorm: 0.225886501021 xtb: 6.4.1 (79825abcba525fcdf90b791dcacef51065a7a4e7)
C         3.72857420151825   -0.10556237733968    0.99613443770098
C         2.52312101400213    0.04657505507751    0.04243873010627
C         1.59176431261982   -1.10021115903954    0.40003277637798
C         0.72538269079083   -1.91544093562036    0.93371813224290
C         1.75483358577530    1.30046674497050    0.27575647491996
C         1.18979263110143    2.35454794705130    0.35551009482964
C         2.94082174360473   -0.02681020745305   -1.49119790406183
N         3.84313315319750    1.04411494860957   -1.94910761326702
C         5.16536007254056    0.88306552006393   -2.23909459233389
N         5.72275718471744   -0.27112200770806   -2.36672753701781
C         4.92271430219266   -1.38245040186483   -2.18992769687866
C         3.61453444614903   -1.34867679600407   -1.87546379291921
S         2.48646870076294   -2.67517476524260   -1.91317999480319
N         3.42523503104516   -3.91636499597855   -2.49052271520999
C         4.66432047937940   -3.83658662068610   -2.84460847234482
C         5.55729393596352   -2.66371520640165   -2.61923599611540
O         6.76312318512052   -2.84860665140008   -2.73079301473621
H         4.43542364644711    0.73287041755404    0.95258826433232
H         4.36337859746488   -0.94659687213092    0.69621070729697
H         3.35596199869199   -0.13901509617071    2.02631935172886
H         0.25797744452449   -2.72533271257388    1.44585021522324
H         0.45698899557356    3.11380848147814    0.52459136536708
H         1.99856558172913    0.08489879695269   -2.04701548869092
H         3.58504806013845    1.98968796315747   -1.68272315058078
H         5.80130201133710    1.78452082945443   -2.19967845389480
H         5.21779215923754   -4.73907107323556   -3.14784324213530
