26
 energy: -46.151809634798 gnorm: 0.228008626770 xtb: 6.4.1 (79825abcba525fcdf90b791dcacef51065a7a4e7)
C         3.70923565234163   -0.17068368874860    0.98593047229798
C         2.49836123669121    0.04830230373992    0.05232082276786
C         1.29225876491980   -0.82161050457952    0.36694118464214
C         0.21704458187546   -1.47295769289337    0.71291527002611
C         1.87712541359284    1.40139404915007    0.03983407506053
C         1.31788645369633    2.45389577514603    0.16715656881463
C         2.89325066604619   -0.20342250390881   -1.46840190378511
N         3.67292828674350    0.98673266484105   -1.85097395147623
C         5.01339306998645    0.82847799003108   -2.04182212707787
N         5.63733931602161   -0.24735014536076   -2.37710628751528
C         4.94419865786888   -1.43694849001189   -2.27323419832823
C         3.72881106692389   -1.46791178973930   -1.69596733965978
S         2.87770553494358   -2.93939178981478   -1.31660248981778
N         3.64573631386392   -4.05667417801480   -2.27418737714088
C         4.76083965837141   -3.85671768295225   -2.89357093311916
C         5.62087751731224   -2.63950972506200   -2.84296099503416
O         6.68348084513769   -2.59852379102802   -3.45111254751789
H         4.44078208360163    0.62769234006113    0.80721982191420
H         4.22817719838137   -1.12900936431961    0.87376338141360
H         3.37434197014493   -0.01897982748992    2.01843812719593
H        -0.70511914325397   -2.00710899379335    0.68180130058906
H         0.81996251296557    3.39911906083407    0.14087161287908
H         2.00453653880665   -0.24174889113308   -2.11491335429983
H         3.36992682498398    1.85263549338130   -1.41499306546005
H         5.60179672337522    1.76233289386479   -2.05895749165798
H         5.16039181325135   -4.73497676042869   -3.42439998280229
