26
 energy: -46.147867814761 gnorm: 0.221931705132 xtb: 6.4.1 (79825abcba525fcdf90b791dcacef51065a7a4e7)
C         3.72813238215403   -0.42754583214957    0.76700018592847
C         2.47997626818346    0.01166527428290   -0.02986781008300
C         1.27277921059788   -0.87150300182151    0.24051426796520
C         0.23448856200797   -1.46236385959681    0.76288647600139
C         2.17487572752480    1.43810039295704    0.26870147354927
C         1.89286788067126    2.60285111592814    0.29207715679647
C         2.78733199431093   -0.11476588951372   -1.58596814407833
N         3.55961831391686    1.01724016957098   -2.12713723824663
C         4.85479807045607    0.88405971328231   -2.53097600646345
N         5.53294729146377   -0.21059582796551   -2.49977612784123
C         4.86501247579482   -1.39213206074585   -2.24637367338519
C         3.60055808897309   -1.39841796686724   -1.78541995323261
S         2.61558322089348   -2.83198890695910   -1.69458729448590
N         3.60974535833496   -4.07311676140070   -2.17040587256934
C         4.82912378075861   -3.89711194937414   -2.55668637219858
C         5.64219462750701   -2.66010072988038   -2.37629587297466
O         6.85810438801021   -2.66223884207609   -2.22725603706295
H         3.41956559212847   -0.65589788792399    1.79517518749719
H         4.55421760400188    0.29063279521282    0.72147492122913
H         4.03375318893501   -1.33241533365704    0.22936926555485
H        -0.48865564883861   -2.14819554519976    1.14152742270733
H         1.75402878358917    3.65699741576890    0.39962008825922
H         1.78140119128131   -0.17356385190994   -2.02631434878430
H         3.13325323961497    1.92903249116340   -2.26324198500194
H         5.47221645909633    1.75888773038766   -2.79943070918475
H         5.45824139693662   -4.75100313189835   -2.85306667356548
