26
 energy: -46.154824102348 gnorm: 0.217635884386 xtb: 6.4.1 (79825abcba525fcdf90b791dcacef51065a7a4e7)
C         3.84183212855730   -0.20240774047661    0.74286295718070
C         2.54727778773991    0.05340517110726   -0.05993683982513
C         1.55662765090924   -0.98412427832392    0.44261901614595
C         0.98101810157418   -2.11988410596103    0.72326119347866
C         1.91802500376428    1.37342637835086    0.22029890262767
C         1.43609044046568    2.45840214403998    0.38548295568827
C         2.81413167302437   -0.05231976751459   -1.62502849271409
N         3.61315709827429    1.10438763919252   -2.06583936165770
C         4.92097186913101    0.94649723430198   -2.41655938803903
N         5.56925790806760   -0.16653135734994   -2.42136746390682
C         4.87870603376080   -1.35426911146032   -2.28427361701466
C         3.58188039559726   -1.34453523955442   -1.92439689244119
S         2.47983637211621   -2.69283282058599   -1.95822450832593
N         3.42077529871156   -4.02039982319726   -2.28588258589325
C         4.69875342808020   -3.86975868582135   -2.39149129229102
C         5.58166226274817   -2.67111112166145   -2.30467142880928
O         6.79944897035280   -2.80130362808754   -2.27822470648785
H         4.69645763863537    0.31542226111024    0.28902456196158
H         3.95059809717225   -1.29169767258681    0.69941988605888
H         3.73560999939537    0.13185093507362    1.78124048665833
H         0.26734713425656   -2.76519397534924    1.18252207058465
H         1.07638454914230    3.38410594910350    0.78013513496662
H         1.81568468822956   -0.05080427017207   -2.08585393075266
H         3.30871440934287    2.02023955987870   -1.74928473639011
H         5.48672095628752    1.86811165921400   -2.63826251406780
H         5.26480629884646   -4.80135346905610   -2.54793845853434
