26
 energy: -46.154966794334 gnorm: 0.222483635829 xtb: 6.4.1 (79825abcba525fcdf90b791dcacef51065a7a4e7)
C         3.87377741768915    0.19472082181993    0.87464039681981
C         2.61611248945182    0.15671819540245   -0.02125771438348
C         1.75298315983633   -1.03743378281828    0.35214053591862
C         1.14899714863670   -1.99411068320930    1.00021998800038
C         1.71663764029377    1.31735934509751    0.22532745344948
C         0.82273204431645    2.10447863522120    0.35984555081750
C         2.94688544635213    0.04886869616623   -1.57395162340432
N         3.91687984709257    1.08911326990563   -1.95830819288785
C         5.24056627424754    0.76582181898658   -1.99893182939109
N         5.74929696402580   -0.41748659608533   -1.98869253755587
C         4.86997965321348   -1.48190695855244   -2.00240267732237
C         3.53547500094267   -1.31381828440787   -1.95543150115266
S         2.43086147450515   -2.65846624984264   -2.02824987208832
N         3.29660064436006   -3.97463211319369   -2.55109128020238
C         4.58085372422315   -3.94911641631887   -2.68192337508754
C         5.46347225823766   -2.76293518747336   -2.48755177555247
O         6.64206541743977   -2.80717410274652   -2.81863346511663
H         4.21519006896893    1.23417867595003    0.78823013083598
H         4.65187474094150   -0.51425770428287    0.57102239263564
H         3.63829958551946   -0.09430292812846    1.90529812822601
H         0.50946210807718   -2.81513034356386    1.23172220782465
H         0.23860512918121    2.95863846983678    0.62681545887951
H         2.04794974816083    0.30536891600001   -2.15307252005440
H         3.63398330721631    2.05783150334262   -2.07333625048987
H         5.92910648443149    1.61932968744343   -2.12555788247417
H         5.06681768820913   -4.86647768310207   -3.04941180144740
