26
 energy: -46.150260744412 gnorm: 0.227343106962 xtb: 6.4.1 (79825abcba525fcdf90b791dcacef51065a7a4e7)
C         3.83290938956981   -0.04918676715351    0.81838765063565
C         2.51509178787202    0.01568005273010    0.01530125640501
C         1.58096594659859   -1.12450782148835    0.38651271654178
C         0.80306392148853   -2.09026721801200    0.78927069001174
C         1.82194146287941    1.29507574896522    0.33095359073875
C         1.36920756311668    2.38555244971543    0.53737956759410
C         2.82419911521955   -0.07529617224802   -1.54292742346305
N         3.63073140317105    1.07271482144303   -1.99270994350242
C         4.96463883797839    0.87314082149911   -2.19063562452346
N         5.66851789280920   -0.20386469265962   -2.25182355888432
C         4.93069331487751   -1.36985529808070   -2.20224122332355
C         3.60267476280358   -1.31740709205757   -1.99015947123839
S         2.48627863452777   -2.62452380970658   -2.27061854201499
N         3.45036268925903   -3.97570864576514   -2.26939154031418
C         4.73564384333074   -3.87340511975703   -2.33765869284399
C         5.62529620358860   -2.67777573593421   -2.39067527090384
O         6.80815731787028   -2.81573091367458   -2.67783715646763
H         4.01227932525438   -1.09769226234391    1.08850727938819
H         3.67270125809319    0.51115945046767    1.74608122078186
H         4.68396799220707    0.31303146772318    0.23039351767734
H         0.17309518270835   -2.73200570865986    1.36196844688060
H         0.92906712346346    3.28067261108116    0.92091899638132
H         1.89656370763804   -0.16933217630039   -2.12594419101862
H         3.24994695742312    2.00661150997545   -1.87222299343323
H         5.51303340519040    1.81744167510352   -2.35236614066964
H         5.32482924726829   -4.79856644753409   -2.23918284674028
