26
 energy: -46.146840106867 gnorm: 0.217156950448 xtb: 6.4.1 (79825abcba525fcdf90b791dcacef51065a7a4e7)
C         3.90981900854239   -0.46616209139191    0.64521216620832
C         2.61851614630046   -0.03692497243627   -0.08560321262334
C         1.52481995004581   -1.03295419125834    0.26392772100318
C         0.42328337612583   -1.66906683386723    0.55030973459426
C         2.12249914922038    1.28210334455481    0.39510311755664
C         1.68642752774370    2.39368489053059    0.49973162044199
C         2.77018995537382    0.00725330787305   -1.66893640228878
N         3.51290609796503    1.15226415986756   -2.22395961057779
C         4.85002538998540    0.94709263671231   -2.39227492860252
N         5.49006712532312   -0.16248750455308   -2.52758586530782
C         4.77304533396408   -1.32914356944267   -2.35103279995840
C         3.47992341765874   -1.31544096565457   -1.97819139897991
S         2.57803894666542   -2.76805274069658   -1.64641565522326
N         3.56326596424953   -4.05390185230683   -2.00846511897642
C         4.79440834550505   -3.85182227177659   -2.34092013869286
C         5.57109838227919   -2.58526255332657   -2.46898563002596
O         6.79084362175488   -2.58256545196773   -2.35554720491430
H         4.79735713339169    0.15842200637503    0.48189425147528
H         4.23194332173985   -1.47962303849834    0.38176819879845
H         3.73962648180739   -0.45681333970341    1.72788801933937
H        -0.05272105525868   -2.58920422109727    0.80217994698431
H         1.23943014016529    3.31199223654349    0.81432844842110
H         1.78615253241233   -0.02978976767542   -2.15838193804603
H         3.14169268167989    2.07915636568099   -2.03755048651571
H         5.32508627806530    1.86589674449062   -2.77790898608211
H         5.46974356795687   -4.71619644959072   -2.43859322453346
