26
 energy: -46.151450576448 gnorm: 0.222405417860 xtb: 6.4.1 (79825abcba525fcdf90b791dcacef51065a7a4e7)
C         3.65578873287899   -0.28971790400800    0.84963661461397
C         2.42264714276073    0.01368408455147   -0.02962884049808
C         1.23572290125910   -0.86896048744125    0.32046660936403
C         0.30314326149315   -1.39292917468299    1.06597904449964
C         2.11328288388620    1.44432162847539    0.24334933852598
C         1.72248689256536    2.57648089581697    0.29039174220098
C         2.74012606460207   -0.18729731744358   -1.57582230421197
N         3.50985054401732    0.92480282925287   -2.16018979787731
C         4.87079269517995    0.84740342034436   -2.14757266442106
N         5.56189497347783   -0.23940937823390   -2.12896770066097
C         4.84918133892396   -1.41969037704492   -2.20213629068750
C         3.53152789407376   -1.45112457585471   -1.92980556153669
S         2.65475738325117   -2.95483330706389   -1.99051156173923
N         3.73996898465346   -4.16658626553026   -2.32086072975391
C         4.99066942198180   -3.88060905988877   -2.46591074991399
C         5.73376171813425   -2.58787389060526   -2.48762052833946
O         6.90445563545615   -2.52438195019363   -2.84272405123275
H         4.57430073987836    0.11139121576667    0.40247990183381
H         3.81199478027379   -1.36378586512588    0.99879281321075
H         3.62761421331988    0.25608613203552    1.79965979590663
H        -0.51907444508837   -1.95231116207683    1.45032453940462
H         1.45740918568447    3.60046688574531    0.44288011572048
H         1.75878433071237   -0.06650231220239   -2.05710779843517
H         3.05212451037471    1.82304516141260   -2.03639756737435
H         5.38222244482313    1.82491994708395   -2.10886206000511
H         5.66966682500172   -4.74671649544780   -2.50567063749661
