26
 energy: -46.149628725622 gnorm: 0.226691983304 xtb: 6.4.1 (79825abcba525fcdf90b791dcacef51065a7a4e7)
C         3.80668292704852   -0.22136607951292    0.82795659070959
C         2.52601598770622    0.00312663764282   -0.00588626530624
C         1.49267280369149   -0.98363821966607    0.51268332478329
C         0.84102687666858   -2.07235104428429    0.81284784920489
C         1.94257098569615    1.34984318817458    0.24489969696801
C         1.62875922740740    2.50390077425946    0.32485207801332
C         2.75659342668159   -0.10656508179463   -1.57646017683859
N         3.57773623510672    1.07007954183060   -1.91106413818896
C         4.92459455431847    0.88044650166838   -1.81982061564428
N         5.54692828402111   -0.24714022202574   -1.83930057561824
C         4.86167146759039   -1.41366280987376   -2.11502824087844
C         3.51999872070398   -1.35757943407365   -2.02485265166131
S         2.43532171940294   -2.70178333593874   -2.24877982149465
N         3.50155337307805   -3.96775903743128   -2.37374226910581
C         4.77538367373539   -3.82600314991759   -2.52974127606527
C         5.63059585619361   -2.60542529499059   -2.58096158019667
O         6.82445525552112   -2.71071755056194   -2.83447145685459
H         4.45197944673425    0.66467784776323    0.88291585302862
H         4.50411931313661   -0.95875197714986    0.41550730664938
H         3.62650023234808   -0.44481671666576    1.88571077021494
H         0.16255662513298   -2.74140416796925    1.29109220613914
H         1.26825639232700    3.49697645339499    0.48580117246710
H         1.82726192246090   -0.02510733827244   -2.15866835001533
H         3.13193540215216    1.98271610929264   -1.90531627067996
H         5.59911716961920    1.75269296776596   -1.87276212932489
H         5.35814502478771   -4.74080661123263   -2.72022552331832
