26
 energy: -46.148156269113 gnorm: 0.225584670260 xtb: 6.4.1 (79825abcba525fcdf90b791dcacef51065a7a4e7)
C         3.71537265910943   -0.24116322267388    0.89931273919000
C         2.51838873464544    0.01134336353922   -0.04369765934688
C         1.37249195535316   -0.92877937378456    0.29321073589041
C         0.28346073807465   -1.33326467656267    0.88518998415527
C         2.04688606427471    1.41113989455327    0.14392442738217
C         1.84913130977907    2.51936972712788    0.55555389006108
C         2.74292634035791   -0.18787576790827   -1.60632213559700
N         3.50854239754133    0.90663101755417   -2.22810572392759
C         4.86935426650177    0.83458837716295   -2.19185224530897
N         5.55468684469435   -0.25118231332183   -2.08913015409125
C         4.81334658755423   -1.41595453047470   -2.07923535357820
C         3.50037626385821   -1.50641381700653   -1.79765270972897
S         2.59727055715027   -2.99520626439598   -1.83571613354884
N         3.69371574956153   -4.08073934331793   -2.44775036419572
C         4.93853215096881   -3.83105200316261   -2.68261716461156
C         5.68807344813134   -2.55830120492228   -2.47739790548828
O         6.88284412446554   -2.47033617136582   -2.73320871751239
H         4.32495691704951    0.66106392607980    0.76185303764445
H         4.38290393164460   -1.08197003275123    0.68087328615617
H         3.46403782055806   -0.32804001305038    1.96257334585798
H        -0.37046377611859   -2.01198757690881    1.38357697239900
H         1.62788367701136    3.52896981679652    0.82725842750210
H         1.76179862632077   -0.18296048445716   -2.10293366655130
H         2.97153004242862    1.75263129986552   -2.39417250789350
H         5.37523196704477    1.75084887503289   -2.54278231116399
H         5.50813412455591   -4.60001901612121   -3.22759765437072
