26
 energy: -46.150783725909 gnorm: 0.221991196430 xtb: 6.4.1 (79825abcba525fcdf90b791dcacef51065a7a4e7)
C         3.74186182338119    0.10273751308555    0.89428317801641
C         2.45484652645184    0.03820012837896    0.04268161076870
C         1.66783203218604   -1.15112172171413    0.56855147076829
C         0.87017096410469   -1.97674222799327    1.18671353362457
C         1.72765894506224    1.33746748122717    0.04972873984203
C         1.36385792826978    2.47180736612065    0.18254793245893
C         2.84668361727424   -0.10211716564283   -1.49311634391444
N         3.71657321155012    0.99097105321491   -1.96128096724215
C         5.06857981015771    0.82695554939509   -1.90220079302729
N         5.65513054787103   -0.31777961089407   -1.97053966435434
C         4.89996158721187   -1.47065597013808   -2.05404735933529
C         3.56177686874859   -1.38133125970900   -1.94159520308112
S         2.45459308962114   -2.70039146664379   -2.20193334042901
N         3.47622428244310   -3.96737610305976   -2.52778555193526
C         4.76659923266646   -3.92305242118620   -2.52130817773414
C         5.60777934806956   -2.69184119213751   -2.54019248501020
O         6.75523720523930   -2.72540532838049   -2.96782305049382
H         4.50860588850349   -0.58266761055446    0.51110526622217
H         3.42526276794658   -0.25809322608895    1.87908574932472
H         4.11251472004189    1.12906165386361    0.99682624307741
H         0.27932012194055   -2.79094583409015    1.53975656465671
H         1.10982710894807    3.49645511099537    0.01632055800418
H         1.88665005196782   -0.06090150855774   -2.02780839111278
H         3.32048023736373    1.92071284455183   -1.85946013961595
H         5.67078647142675    1.75207571648727   -1.91206330952767
H         5.34966549175291   -4.83745281562008   -2.71279203233907
