26
 energy: -46.154459161734 gnorm: 0.219648767248 xtb: 6.4.1 (79825abcba525fcdf90b791dcacef51065a7a4e7)
C         3.65074241093303   -0.24167392617432    0.90977884431023
C         2.45398611526398    0.04380274979111   -0.02407132891091
C         1.22305682462209   -0.68680998976749    0.48723635421969
C         0.07940292900513   -1.31230835829329    0.51629370247101
C         2.06354397658907    1.47822993507987    0.05911964941859
C         1.86358475817261    2.61069869202656    0.39712845266133
C         2.84717586868004   -0.18620025707958   -1.54866999035622
N         3.62231882673370    0.95792603101487   -2.05941093053428
C         4.96691227342982    0.81374458442015   -2.23143874405870
N         5.62764258541971   -0.29188650579183   -2.24351783119192
C         4.91754015688307   -1.46932104164154   -2.11789914460792
C         3.62011027229148   -1.49250891736861   -1.76082665689579
S         2.67898827749943   -2.95548735200772   -1.67402117688914
N         3.71608833162314   -4.16854226873754   -2.13018043915681
C         4.95550409265154   -3.97233821363718   -2.43419786484624
C         5.68239257445707   -2.67559246191741   -2.55211851972557
O         6.76344312010646   -2.56464863686815   -3.11751676601245
H         3.39431296775008    0.09874655358666    1.92114416021204
H         4.49733405458889    0.33407093052936    0.51981687058505
H         3.81628973413142   -1.32405182024869    0.86190317735753
H        -0.85315493187024   -1.74230552443235    0.80284195805058
H         1.41755840439281    3.57338292075993    0.52505727587988
H         1.89154143969516   -0.19581379005911   -2.09266372683127
H         3.12694003429737    1.83021493217972   -2.21874970615146
H         5.41982724168700    1.74749363660578   -2.60770752606471
H         5.46887167175591   -4.91261141617849   -2.68934574589227
