26
 energy: -46.151120643467 gnorm: 0.226657406547 xtb: 6.4.1 (79825abcba525fcdf90b791dcacef51065a7a4e7)
C         4.01011748897779   -0.00018422672583    0.66478820924688
C         2.65668523005902    0.09027518634943   -0.07401955097536
C         1.70220026263935   -1.01018848629722    0.35997997783395
C         1.10617243884655   -2.08478865830561    0.79589518914976
C         2.05866417096954    1.39492782077322    0.32246429028108
C         1.68046616500874    2.43926402258665    0.77307195749273
C         2.65580582171230   -0.08523828827883   -1.65550457771642
N         3.42199667278550    1.01931783814967   -2.25852633304255
C         4.77616070501634    0.86406307624933   -2.27971924196849
N         5.47288970671151   -0.20657056437907   -2.11406033246978
C         4.75055617387348   -1.38199085661763   -2.05929703391751
C         3.40504057256241   -1.35498252523554   -2.07416581908615
S         2.45236466416360   -2.75621250336493   -2.47729715493831
N         3.46959841434196   -4.03653315082806   -2.19238564607140
C         4.72273047325716   -3.88417521648077   -1.92123777876498
C         5.53573124136511   -2.65016877424197   -2.12143657953036
O         6.72380155094389   -2.72817131337471   -2.40963536424113
H         4.73522097924013    0.78588866339077    0.41817860337422
H         4.45000303663896   -0.98406647415426    0.46794737132744
H         3.83562472839967    0.11010994764250    1.74118375368922
H         0.37399790286673   -2.83233197454242    1.00027490168542
H         1.29130627723133    3.29260517705492    1.28535084566950
H         1.63486861103778   -0.04034418405745   -2.06162093633138
H         3.06675706347023    1.95327008391776   -2.44077601783576
H         5.36190644857816    1.73899229306433   -2.61137908746675
H         5.30042897750388   -4.81406641194842   -1.80154142078990
