26
 energy: -46.153782781149 gnorm: 0.224000408360 xtb: 6.4.1 (79825abcba525fcdf90b791dcacef51065a7a4e7)
C         3.71400979983021   -0.18428181436161    1.00079202548782
C         2.48817266574414   -0.03630212029365    0.07277046724688
C         1.39922587093289   -1.05868124843245    0.35446748485081
C         0.33131074054258   -1.69679156777468    0.74486375381342
C         1.92110168046049    1.31284411272750    0.34696392514952
C         1.43207412087949    2.40554870555762    0.40669514517395
C         2.83446719728228   -0.11760277686065   -1.47815536015902
N         3.67981209175631    1.01360307659507   -1.89826630502213
C         5.03153041263205    0.83841394115598   -1.92016938939362
N         5.70607701881871   -0.23426757363713   -2.15140910501701
C         4.92880815411144   -1.37095268197395   -2.25229354292417
C         3.62936251189252   -1.35747228972826   -1.90211925056910
S         2.61561286802558   -2.77086290665506   -1.99261965677859
N         3.63653991620718   -4.04632869018449   -2.28597102168902
C         4.90220533034702   -3.90422560948427   -2.49803665056466
C         5.61618486947460   -2.61299652943402   -2.71432898418386
O         6.67624972508985   -2.60650490135518   -3.32822991378592
H         4.30985688514828   -1.08281058446694    0.79557444285992
H         3.36314088151919   -0.15475220854206    2.03823546579779
H         4.35580023858378    0.67876300473122    0.78984518455701
H        -0.42783784398376   -2.33717274812757    1.13251951556469
H         1.04192347575510    3.39836146391591    0.34210797595939
H         1.89951865598440   -0.08442996616709   -2.05610825659868
H         3.39272359233273    1.98465745931455   -1.81882764195871
H         5.67511326587151    1.71404027291515   -1.72606349382228
H         5.51540287361400   -4.76624952070456   -2.80408233213652
