26
 energy: -46.149933222240 gnorm: 0.216121156267 xtb: 6.4.1 (79825abcba525fcdf90b791dcacef51065a7a4e7)
C         3.66377633768635   -0.17281853112708    0.93527370714580
C         2.46930196278033    0.03606293997402   -0.02149073330882
C         1.40680904539151   -1.03055331950430    0.18792749407295
C         0.31312615656618   -1.68449227312619    0.46407664535319
C         1.81107837316132    1.33714361703842    0.27996889289944
C         1.35881221327380    2.34445365792877    0.74633882436637
C         2.89244066863017   -0.04197398986179   -1.55340604081894
N         3.78358469748155    1.08191681898658   -1.89024374926873
C         5.02351188104599    0.93077880827015   -2.43618447073683
N         5.55244037168696   -0.23183434402672   -2.60260520514118
C         4.92851690604725   -1.40182970039871   -2.21762732444791
C         3.62822730863930   -1.34747031410275   -1.87461892889963
S         2.71737854294198   -2.80793390895541   -1.60825017486539
N         3.57214472883265   -4.00409182544959   -2.37879610643983
C         4.78368459025080   -3.87273797709743   -2.80540059395327
C         5.63304968088832   -2.66957314428912   -2.57131722698853
O         6.85082820124990   -2.79591224128714   -2.52999050587006
H         3.80998673085730   -1.22513126459166    1.21052339539050
H         3.44530593859919    0.41034012843760    1.83664297261818
H         4.63410808329180    0.20803058053952    0.59667342499972
H        -0.19702494841117   -2.56879709343320    0.77135903334644
H         1.03219332045601    3.35181336389915    0.88991016642212
H         1.96860590935545    0.04099904579124   -2.14408664275775
H         3.35271640784799    2.00110449766612   -1.85672585353738
H         5.56102963634721    1.86566941388740   -2.67209053363057
H         5.35396125028976   -4.70351585575572   -3.24964496074857
