26
 energy: -46.156293491704 gnorm: 0.220872180396 xtb: 6.4.1 (79825abcba525fcdf90b791dcacef51065a7a4e7)
C         3.59952287326978   -0.24345073610107    0.88522028603316
C         2.42749774362182    0.01370746700582   -0.08741810550092
C         1.28416318359407   -0.91333297527111    0.29179096824273
C         0.40797058195391   -1.70354658215300    0.84666549097930
C         1.90656843611645    1.39432038954865    0.11129711687885
C         1.72414027705796    2.55502493123376    0.34837103447134
C         2.84150360954591   -0.08978320116378   -1.62032040122800
N         3.72368172286718    1.04881156370919   -1.93030686977148
C         5.01307943790371    0.89078558228803   -2.34358004013802
N         5.53319819637134   -0.25277734289244   -2.62795808011892
C         4.80634135170714   -1.40746147445091   -2.41638946047593
C         3.52930850622062   -1.40813311650084   -1.99147841602659
S         2.60123925395931   -2.86128088740120   -1.74530629371123
N         3.63732057165170   -4.09292739128649   -2.15119102949066
C         4.89614441444291   -3.91955513489388   -2.38005485285658
C         5.64817456799660   -2.63745626778032   -2.50044936218371
O         6.86475887075785   -2.60040804442775   -2.63902805116418
H         3.49298727628556    0.27092786793750    1.84884198390582
H         4.59131185170724    0.10538486723113    0.57709981140647
H         3.75645412868346   -1.29519434628698    1.15064042689016
H        -0.39129732711645   -2.37183000758644    1.07302735636260
H         1.42566653920303    3.56452081650206    0.53248429282405
H         1.94422420817394    0.00001801481692   -2.24967258848850
H         3.44603785321913    1.95613680384204   -1.56788210181998
H         5.63479801312044    1.80197764106217   -2.38591796594898
H         5.46818913202492   -4.81811065174959   -2.65956019316340
