26
 energy: -46.151861380122 gnorm: 0.218135756475 xtb: 6.4.1 (79825abcba525fcdf90b791dcacef51065a7a4e7)
C         3.61297709436634   -0.60869796356805    0.89592559675480
C         2.48577103156418   -0.09316467510393   -0.02572001090734
C         1.27443910853510   -1.00877575809953    0.04319131746937
C         0.23992460405046   -1.63817520833667    0.52658851578824
C         2.03877550454165    1.25955454605551    0.40705343241443
C         1.61844187153916    2.33897693130062    0.71508925873910
C         2.89479473569475    0.02717916882832   -1.55872934856059
N         3.77903321400599    1.17239905951501   -1.83679695553879
C         4.95049434055188    0.99300158087678   -2.51045025334929
N         5.46908980975721   -0.16914705663751   -2.70944732917488
C         4.86145825449033   -1.34752181885913   -2.32396787462070
C         3.59079921718910   -1.29920987213236   -1.88299813160498
S         2.68682525536754   -2.75936804288993   -1.59261752183951
N         3.71115638182184   -3.99707471503955   -2.00973616344904
C         4.93026099622712   -3.89185595438130   -2.42178835215520
C         5.62727457831128   -2.59079834722603   -2.63449203047062
O         6.76922835765501   -2.50931463369863   -3.07033140565546
H         4.52480225807912   -0.04005568340242    0.67293951766638
H         3.93109301330084   -1.63998421328815    0.70745591243789
H         3.35786268289745   -0.44006420937514    1.94840799165696
H        -0.71239672195578   -2.10936956237961    0.61451806725980
H         1.35314346819131    3.27900360909380    1.14871676487509
H         1.99297842166269    0.09450192513288   -2.18439199713528
H         3.30660590252956    1.99537876191372   -1.47459015397228
H         5.54289902203363    1.87085034569862   -2.82195578134214
H         5.41643287887322   -4.86613083764816   -2.58666938716044
