26
 energy: -46.149969953764 gnorm: 0.207765203589 xtb: 6.4.1 (79825abcba525fcdf90b791dcacef51065a7a4e7)
C         3.80263977922273   -0.39086650106902    0.66181199820287
C         2.48101302040198   -0.10596224556702   -0.08513578425679
C         1.32894102906654   -0.99784020072680    0.34810929003110
C         0.20145052938406   -1.44287148851907    0.82847280600819
C         2.05408694792192    1.28413485361399    0.23472565207240
C         1.86238656521354    2.39910918808777    0.63070838169968
C         2.70546737765947   -0.13671482759323   -1.66011997078115
N         3.49928851342614    1.04009511932343   -2.05470107389170
C         4.85977939293958    0.98215401876215   -2.11811084643005
N         5.50932162481117   -0.12835272215745   -2.18135822536732
C         4.83309580259770   -1.32936177010501   -2.26304979822656
C         3.51649530485185   -1.39420417883802   -1.99153303207419
S         2.59885532764352   -2.87376801118229   -1.94275336990789
N         3.72824663969265   -4.08401558302767   -2.06496674131671
C         4.96957677517768   -3.84482263146153   -2.32756964903096
C         5.66072744450884   -2.54057440178380   -2.53986428455542
O         6.84420188786666   -2.55869994133381   -2.85563904855264
H         4.24598840949603   -1.36778216840564    0.43033903284344
H         3.58001131267066   -0.46702777825805    1.73181476368749
H         4.62003077210736    0.33211408666120    0.55977802623269
H        -0.60825002977625   -2.12043516071194    0.68026986323576
H         1.59665907337869    3.32452576111438    1.09445322721679
H         1.75303596990848   -0.07523570294649   -2.20633741873175
H         3.10302923104790    1.96805494338238   -1.93831347540122
H         5.46468303307957    1.90409932747945   -2.17012904991135
H         5.69123721836383   -4.64063950015244   -2.56973102259058
