26
 energy: -46.151130046056 gnorm: 0.216284482531 xtb: 6.4.1 (79825abcba525fcdf90b791dcacef51065a7a4e7)
C         3.63956406317483   -0.22665067454003    0.96845398368945
C         2.43429865233156   -0.07434457273147    0.01454788528996
C         1.36335878431123   -1.10535405743423    0.33160415701332
C         0.16208028915549   -1.59724768699842    0.45410887339885
C         1.84212119816491    1.26057029926048    0.30484993062378
C         1.43242992433469    2.37808618599171    0.44637877347568
C         2.91307683351370   -0.10175881334332   -1.50266025739630
N         3.79824278612352    1.05280141392526   -1.73546875670699
C         5.09458391068233    0.87332737868434   -2.11704725696085
N         5.69024674310024   -0.22822766698333   -2.41853163273769
C         4.97575816795177   -1.39567946815283   -2.23703792327800
C         3.68148030922750   -1.37636142370113   -1.86848076568925
S         2.72562033549531   -2.79439228403215   -1.53822042263096
N         3.65871210414717   -4.00916602188967   -2.17761431070887
C         4.78618683117350   -3.85002947767000   -2.78634278545092
C         5.60770734730448   -2.60660582283878   -2.83947798185397
O         6.71339746673619   -2.57155460385543   -3.36566688581328
H         4.55592928817955    0.26486013179396    0.61746415078342
H         3.93114990782847   -1.27970694648743    1.04795286984365
H         3.41047752495872    0.29770313027848    1.90323328577975
H        -0.64673685812348   -2.19125874018557    0.81416070425822
H         1.06157837292581    3.33490382840706    0.74476666413020
H         1.97481380975644   -0.13036253869115   -2.07546309482456
H         3.31989094344503    1.91122475485729   -1.47863066553837
H         5.63284111299377    1.80648409453561   -2.35807668500196
H         5.30657281807468   -4.78441078160328   -3.04881261743403
