26
 energy: -46.155458764213 gnorm: 0.228887561916 xtb: 6.4.1 (79825abcba525fcdf90b791dcacef51065a7a4e7)
C         3.83408882875202    0.12201000697340    0.88762849828822
C         2.58618002140556    0.10816989633254   -0.02249827947632
C         1.59964046798461   -0.94985009875782    0.44413952709768
C         0.63108662409306   -1.68265066942773    0.91842166379703
C         1.81163705911478    1.37218151065923    0.11644405427264
C         1.30573982010865    2.43926517010919    0.32167456004560
C         2.85738162870063   -0.13554898771419   -1.57135315557253
N         3.68302180138003    0.97024839909597   -2.08735541435114
C         5.03903293372165    0.83177249175556   -2.06807760127509
N         5.63108943728299   -0.30871839633958   -1.97930714451256
C         4.85225428003382   -1.44116398806717   -2.11106592946860
C         3.51346468982934   -1.46062906444736   -1.97458778125763
S         2.50688786867131   -2.87515126023032   -2.11416482850834
N         3.58554613957354   -4.12731878913300   -2.26821950283723
C         4.85413162404860   -3.91735789950055   -2.38518681926084
C         5.62213083021505   -2.64789013111521   -2.53502175174339
O         6.76031118461324   -2.74589785989165   -2.97728180655655
H         4.60144216118835    0.79941856020239    0.49166325335269
H         4.27794225541577   -0.87520348088482    0.98159275791877
H         3.53064286144895    0.49580162087777    1.87223007794801
H        -0.08042146142022   -2.36901008306115    1.31759409214128
H         0.73942753902716    3.33641267557438    0.45006055098831
H         1.86389535994685   -0.01884362117032   -2.02810654296804
H         3.18235106951467    1.85364154453311   -2.06240954378509
H         5.64834443354734    1.74913112066008   -2.14417031271159
H         5.49155862908799   -4.79483014190722   -2.19416406887900
