26
 energy: -46.152059288010 gnorm: 0.216656929559 xtb: 6.4.1 (79825abcba525fcdf90b791dcacef51065a7a4e7)
C         3.56525266936400   -0.21459166976449    0.93338759369507
C         2.36760501851964   -0.00228874380332   -0.01864510235961
C         1.16100414895591   -0.89048073552961    0.23757105781964
C         0.03021067119148   -1.48149679222033    0.50597908961358
C         1.96992190494668    1.41740477181284    0.18935865734419
C         1.51571877578229    2.49817316245314    0.43907509072779
C         2.90042516687865   -0.19419630255862   -1.50564705006514
N         3.70706633574332    0.96481759014939   -1.92605719394613
C         5.05552012837342    0.87239735983399   -2.10338249097377
N         5.67807811404533   -0.24642722129592   -2.24403692193404
C         4.93912899598742   -1.41224183707967   -2.20927946719558
C         3.68243048222111   -1.49230747405197   -1.73424149111126
S         2.78391347163740   -2.97123109301359   -1.53674768402934
N         3.83186240767640   -4.14355142255886   -2.06837546718042
C         4.91115347528281   -3.88632225795123   -2.72870720791851
C         5.60580232903225   -2.57413863283267   -2.86820202263856
O         6.68594277266659   -2.41492776878871   -3.42372206658892
H         3.95710361003732   -1.22409292806619    1.11188690064230
H         3.31744027819448    0.20238033948925    1.91572829275247
H         4.41468020597788    0.39513053548366    0.60482772500637
H        -0.70714771144648   -2.10289135652441    0.96077907404631
H         1.22392346073375    3.50802050643244    0.63176664320438
H         1.99910033345253   -0.19525907439106   -2.13562417340349
H         3.21431697199483    1.81677728914878   -1.67498019712454
H         5.65712002512064    1.79294105306283   -2.19968580689462
H         5.55410076822426   -4.71720172695478   -3.05888670335105
