26
 energy: -46.150050711282 gnorm: 0.229802381025 xtb: 6.4.1 (79825abcba525fcdf90b791dcacef51065a7a4e7)
C         4.04582758451406   -0.06501110994653    0.76223275500523
C         2.68202727204303    0.08981246973410    0.05379992789386
C         1.80431604764232   -1.02879065314991    0.59117084828724
C         0.91367816220636   -1.93965580521188    0.86888581576537
C         1.96745029297198    1.38438466030927    0.22818378388490
C         1.15703313039074    2.20485783798757    0.55493584418687
C         2.79008246967669   -0.02033180993653   -1.52989605595687
N         3.65738832594011    1.07662177214798   -1.99379397800901
C         5.00289552764234    0.86589195643843   -1.93449205212829
N         5.56710177609757   -0.28715769989469   -2.04069168126262
C         4.78917713073093   -1.42784379707862   -2.04747981330094
C         3.44911714476977   -1.33367768651017   -1.96541444696058
S         2.40741776628114   -2.69690422196729   -2.26546030961766
N         3.41315370560130   -3.92673697710078   -2.74625823084367
C         4.69684894318004   -3.81196677663753   -2.82390097021008
C         5.54940199088049   -2.65967619894229   -2.41255996357882
O         6.74891003498728   -2.87040239338071   -2.28054136496738
H         4.85625788179372    0.46401346259017    0.24470237316061
H         4.24863490416319   -1.11251256303628    1.01098923355965
H         3.91634079910338    0.36688667119366    1.76120091221546
H         0.33887563894292   -2.80427549047565    1.11118003299009
H         0.65788210695793    3.14214141429505    0.67499402788676
H         1.79759702888348    0.13168939015832   -1.97836118298497
H         3.24171177548991    2.00307908781107   -1.96998698282584
H         5.66572703555358    1.74464972105349   -2.01837675756295
H         5.26844094640463   -4.69840714194286   -3.14054978590913
