26
 energy: -46.151317362775 gnorm: 0.220481804347 xtb: 6.4.1 (79825abcba525fcdf90b791dcacef51065a7a4e7)
C         4.09214694261091    0.11625318432264    0.80117634753948
C         2.75343083414853   -0.00247928474635    0.03990077930899
C         1.91162548147389   -1.14370058776873    0.58707090302496
C         0.85770130023791   -1.87593296193557    0.81754075563574
C         2.03451991758968    1.26505066685955    0.34564915315256
C         1.46373472967645    2.31513341872018    0.43647649614442
C         2.72247476357240   -0.12680694706652   -1.54612728343286
N         3.50755064426871    0.99250505875234   -2.09523964854483
C         4.86365439542844    0.86841136535594   -2.03281549938170
N         5.50350244474948   -0.24659001950611   -1.95221186659670
C         4.78416561136797   -1.41938145642633   -2.06836848751842
C         3.43950536411338   -1.39730332604105   -2.01579359372430
S         2.37435389919344   -2.73618861735806   -2.34196874936324
N         3.42165435881427   -4.00677871153908   -2.55154590795623
C         4.70375733232779   -3.87869542472093   -2.63449582607964
C         5.53878073949786   -2.67425160028018   -2.35904588589127
O         6.76254630488719   -2.65442985008528   -2.41061067276459
H         4.58588593993536    1.06626771609962    0.55993755460552
H         4.74488882737812   -0.74624153002080    0.62710512850153
H         3.77938757876648   -0.04252302368129    1.83954603048753
H         0.25503919292858   -2.63084137699937    1.26874282171175
H         0.95329638405041    3.24508564144452    0.56573504384177
H         1.68830911032444   -0.06191092238830   -1.91429663997165
H         3.15079542839290    1.94313483130370   -2.06867506644488
H         5.50228665878178    1.76282579966947   -1.92904116713044
H         5.30592541665808   -4.77904807103625   -2.83328998785549
