26
 energy: -46.148930404133 gnorm: 0.223570772731 xtb: 6.4.1 (79825abcba525fcdf90b791dcacef51065a7a4e7)
C         3.77038060038561   -0.05360749563168    0.73631756038194
C         2.50562067638735    0.10987740435728   -0.13514886135818
C         1.50314128004400   -0.97853477086435    0.21243053129497
C         1.03047009220383   -2.06081830475779    0.76495299265392
C         1.95336565936735    1.45450259479959    0.18725557207192
C         1.43177610200809    2.44058339932995    0.62578503309492
C         2.78563132670560    0.01624896626533   -1.69871158597930
N         3.74374935533537    1.07580575168304   -2.05937366662219
C         5.06911651755389    0.85855813239254   -2.29286617203529
N         5.54619612385818   -0.33586232722236   -2.36276161033732
C         4.73015899441919   -1.44899979156890   -2.32553269347118
C         3.42778515654347   -1.34152726673839   -2.00360912714347
S         2.45395951798924   -2.77791304006284   -1.85524730331715
N         3.46397403821342   -4.03768300491953   -2.23996840981777
C         4.74355140249380   -3.91210280539457   -2.35822845578685
C         5.57895221626827   -2.67705129318228   -2.33425057629180
O         6.80203580020248   -2.67378799250078   -2.40287918989423
H         4.50332371572443    0.73010853446987    0.50591457437711
H         4.19294373999687   -1.01975574097611    0.43921849730738
H         3.46651509928285   -0.02057572512476    1.78884525960543
H         0.61790257721067   -3.01914096206325    0.98421849012332
H         0.91574699406324    3.34947594685611    0.84870767111427
H         1.79483566622483    0.23179165221101   -2.12429832103449
H         3.43942277578671    2.03016190441050   -1.89124696260164
H         5.71381009571089    1.73333752265826   -2.48710484867429
H         5.30879488076827   -4.80108934854449   -2.67910716739268
