26
 energy: -46.147411831115 gnorm: 0.215113880197 xtb: 6.4.1 (79825abcba525fcdf90b791dcacef51065a7a4e7)
C         3.78551651430051   -0.35357409579835    0.72080677558549
C         2.51679415649370   -0.01532063441302   -0.09265919875228
C         1.41226511076409   -0.94685089618076    0.37923531105456
C         0.15227286376055   -1.27819900444589    0.32761397063999
C         2.03417589918473    1.33365136976252    0.31268176210486
C         1.66696947625473    2.35725725476035    0.81677456524992
C         2.75297626433553   -0.19931988179699   -1.65543331845965
N         3.46622884832456    0.99698276166285   -2.13591081339525
C         4.82286252993917    0.95367481527547   -2.26233420846659
N         5.50455667483788   -0.13281335621125   -2.38051671315180
C         4.87724843411061   -1.34959501912916   -2.20078260279009
C         3.57519308310365   -1.47250390493772   -1.88312239464417
S         2.65163828995279   -2.93678650294871   -1.69213884744878
N         3.70142475706430   -4.02982121197313   -2.36917911768923
C         4.94714543793230   -3.79078904259474   -2.61025517451242
C         5.74446140110398   -2.54927580749885   -2.39402880852396
O         6.94554637018786   -2.58432217867164   -2.63239960235773
H         3.79021611763034   -1.31210040540589    1.25532262220172
H         3.88472043741996    0.31539943747694    1.58272491913588
H         4.74876124181505   -0.30702979072712    0.20000631526463
H        -0.65123194422542   -1.91956808508690    0.60992119310080
H         1.33468311468403    3.22324266178077    1.34754877372698
H         1.76663473872445   -0.26513490891537   -2.13715683225520
H         3.03184373594907    1.84028701030133   -1.77283444974289
H         5.39049855132446    1.87164103940821   -2.49412035363285
H         5.51149219666832   -4.62607683284592   -3.05361445966413
