26
 energy: -46.153579295071 gnorm: 0.221370867875 xtb: 6.4.1 (79825abcba525fcdf90b791dcacef51065a7a4e7)
C         3.89183998942785    0.07819296314824    0.75059756444797
C         2.55848220255221    0.11680419386201   -0.02816098556596
C         1.51673939363192   -0.92660561414768    0.34127820964534
C         0.73146308698882   -1.89861137100297    0.71354517136721
C         1.94591550170977    1.45968239813223    0.16776576304721
C         1.40067406898317    2.43932062575591    0.59172310891612
C         2.82598033089791   -0.09056036519482   -1.58294242972943
N         3.70644299356894    1.02128899701402   -1.98207195661810
C         5.01290539493158    0.82053454332011   -2.31548917219403
N         5.63867701638174   -0.30152197198993   -2.40784508933575
C         4.82630666144180   -1.40703518385703   -2.25204860889139
C         3.53236425272298   -1.41739604731873   -1.88195613022210
S         2.48725628188442   -2.80603924829846   -1.99584684290923
N         3.47518103408483   -4.11702542461843   -2.24177357161947
C         4.74918128518718   -3.97366933425799   -2.39489590199673
C         5.54376645400834   -2.71256250893719   -2.34944614494614
O         6.75989381329680   -2.78579313313713   -2.47721749046509
H         4.63338891856108    0.73967740889869    0.28471617039728
H         4.27834172071929   -0.94663331999000    0.72575023117005
H         3.72373353880380    0.31777426906277    1.80680820402415
H        -0.21008155678798   -2.36407746565539    0.89659331683909
H         1.02953348559160    3.39686899556440    0.88739521208557
H         1.83909231876521   -0.03534427228475   -2.06487810726030
H         3.37284075840932    1.98065100871549   -1.97875504418740
H         5.57715519187422    1.76667588545103   -2.38645526670123
H         5.36147183884327   -4.86244086448027   -2.61386132273168
