26
 energy: -46.148905148174 gnorm: 0.227797159720 xtb: 6.4.1 (79825abcba525fcdf90b791dcacef51065a7a4e7)
C         3.69388033781331   -0.41144793677102    0.84939533756425
C         2.49154004045816    0.00012885415515   -0.02854602694886
C         1.29435709496923   -0.90466233156127    0.21336995503947
C         0.31832971802802   -1.52346909287146    0.81709631737195
C         2.02171789123539    1.35697019111518    0.36540301526575
C         1.67501406639835    2.47154522216924    0.63786963309923
C         2.76319161629395   -0.13971476557277   -1.59013169798752
N         3.58596164181755    0.96560884123522   -2.11170344680156
C         4.94731767704326    0.90147593593587   -2.14187156104383
N         5.57976673883961   -0.22018017062021   -2.17390791049169
C         4.83298420943095   -1.37635468086077   -2.28324209216059
C         3.51822866559130   -1.40970634236135   -1.99746547650843
S         2.58666541004899   -2.88101238717166   -2.02909019433544
N         3.71394099076223   -4.08070275726354   -2.24158209683737
C         4.98569604322344   -3.87807761459162   -2.33462078788284
C         5.67322873778336   -2.57615581687227   -2.57151766261412
O         6.83554961142440   -2.40634532971945   -2.91912172293279
H         4.22969353081450   -1.26549016532900    0.41578485310229
H         3.30934457977976   -0.68119303921301    1.83916284450243
H         4.46037448609232    0.36108673831779    0.97945989160525
H        -0.33008952801576   -1.97429687182682    1.53332143779601
H         1.41351142168588    3.50014135473538    0.76305974600420
H         1.81475672627052   -0.07966360682372   -2.14341632788539
H         3.15413722460305    1.88290829175435   -2.05033313294946
H         5.55801618865373    1.80517682239073   -2.31207583578481
H         5.64960467229757   -4.75667435930838   -2.32730612079709
