26
 energy: -46.149999107459 gnorm: 0.228441864925 xtb: 6.4.1 (79825abcba525fcdf90b791dcacef51065a7a4e7)
C         3.69686718408720   -0.31142536001696    0.75289747391681
C         2.44162902415274    0.03875538129910   -0.07628846014150
C         1.21213303851973   -0.77089462503150    0.30216090559044
C         0.06690991429491   -1.31568620281303    0.60498576648664
C         2.02512099676919    1.41597219405963    0.30678077527627
C         1.64025616479881    2.51127525306020    0.60495752964272
C         2.78531973840162   -0.18562575996498   -1.61363371656859
N         3.62255001275039    0.97784698859997   -1.95437484719502
C         4.87677170038649    0.85871032103382   -2.47499737017095
N         5.49856704823022   -0.23806406067558   -2.73879097330738
C         4.85269908923514   -1.40570728612000   -2.38404953534688
C         3.60924187160639   -1.45199931942829   -1.87118117342772
S         2.79517837850231   -2.96648343875175   -1.59334993965518
N         3.75191076902588   -4.15436874551668   -2.24814125111780
C         4.95175846221903   -3.88123498237626   -2.63908565290497
C         5.71648110839971   -2.62316363685057   -2.40185691701646
O         6.93171235139419   -2.59096993295556   -2.25075896552049
H         4.42917083835290    0.49968555568512    0.65124904308228
H         4.11671874759734   -1.25529138317358    0.38805300654046
H         3.28670029119720   -0.39452641834035    1.76586205149296
H        -0.88568854874455   -1.79369271924622    0.63214389163560
H         1.35191001698162    3.48614673067256    0.93442422926272
H         1.83531577885538   -0.13549267082663   -2.16521137370682
H         3.28296276941069    1.91982079609435   -1.78395544139500
H         5.32173764747952    1.78258960087836   -2.88371468447632
H         5.50946739773374   -4.72221859719915   -3.08007059304474
