26
 energy: -46.151331873527 gnorm: 0.218527997609 xtb: 6.4.1 (79825abcba525fcdf90b791dcacef51065a7a4e7)
C         3.69316541916997   -0.14664167133650    0.88371233756318
C         2.51967576138110    0.03816666204105   -0.10348907130254
C         1.45499511600504   -0.98537347502440    0.25600804568660
C         0.24219129102107   -1.40716774133796    0.48235571527781
C         1.88993176642251    1.36293494478383    0.15216430929842
C         1.46712030931292    2.45679020106164    0.40001562363715
C         2.94520022905131   -0.04557841422272   -1.63444183268884
N         3.86037419998773    1.07540541155373   -1.91117229913315
C         5.11946635888978    0.80751313558742   -2.35976349789214
N         5.58670287149264   -0.36905379578120   -2.59748362657918
C         4.81510438413067   -1.48099960480436   -2.32437210006636
C         3.54864207937309   -1.43432889503514   -1.87131819978928
S         2.60390226194850   -2.84499481929157   -1.48267950252620
N         3.57625021164066   -4.06096454073572   -2.05810728348851
C         4.76564556066571   -3.92518941618982   -2.54181988496088
C         5.62058718417360   -2.70520903452866   -2.60923202442256
O         6.83778272127700   -2.67154740796835   -2.74323171590326
H         3.34218689930906   -0.66091474817503    1.78750393208644
H         4.24679372269005    0.75248673806407    1.17583165507259
H         4.37305265348377   -0.89090985339882    0.45352851287287
H        -0.56981287050589   -1.97489996745535    0.87605737788058
H         1.23731651218709    3.47682233916170    0.62090217087061
H         2.02681925392139    0.05131612477031   -2.23147332651714
H         3.47378327228084    2.00885156338599   -1.80675649714238
H         5.69050147758637    1.69708048566163   -2.67786141102927
H         5.19019976907640   -4.90129488669652   -2.82418887703694
