26
 energy: -46.152496443749 gnorm: 0.229479541517 xtb: 6.4.1 (79825abcba525fcdf90b791dcacef51065a7a4e7)
C         3.77612976503049   -0.29109283725681    0.86446976419554
C         2.55045943233513    0.02099858465267   -0.02216989054621
C         1.35965417351955   -0.88612149201087    0.24152207566142
C         0.18899567363495   -1.45432360272591    0.32363062142466
C         1.97334104401543    1.36433587422291    0.25947959047830
C         1.40872702159538    2.40221648177789    0.46130616082917
C         2.84298185034704   -0.10944015327360   -1.58079653602261
N         3.68320393115718    1.02506989207785   -2.00227216534787
C         5.00321849920525    0.84794490403630   -2.29296389444617
N         5.61014464641486   -0.25708089465731   -2.55695101989807
C         4.89647088838085   -1.41676082160348   -2.32850004576302
C         3.59727747705933   -1.38283417167261   -1.97877411880939
S         2.62666722337281   -2.80458706103335   -1.71403617690896
N         3.71813255534179   -4.05252703788737   -1.79471625073503
C         4.98718879310779   -3.91078930513959   -1.98571558236424
C         5.63106121195678   -2.69528231892663   -2.56173014926374
O         6.71735110369452   -2.66204413556530   -3.12699424130669
H         4.26475768832827    0.67793452524445    1.02796498643644
H         4.45740025954530   -0.95054442685676    0.31559454800155
H         3.52540438485833   -0.66608543890271    1.86334774826032
H        -0.65525560098060   -2.10062139822096    0.40243782593223
H         0.97250767621313    3.34752983287441    0.70247324003038
H         1.89540050938823    0.01384505865135   -2.12499238839151
H         3.31398450829047    1.86957557285987   -1.57546529824746
H         5.60031514772426    1.73774237030510   -2.55816857728206
H         5.57532746085252   -4.83982576289069   -2.04690857379381
