26
 energy: -46.147604894755 gnorm: 0.230432189886 xtb: 6.4.1 (79825abcba525fcdf90b791dcacef51065a7a4e7)
C         3.79524363491314   -0.17881702624675    0.99840547625243
C         2.55324484281208    0.10044892853186    0.12362080880744
C         1.39400399819349   -0.86573906503061    0.30544179634906
C         0.33339524751859   -1.60285353408867    0.48379007507123
C         1.85249381095399    1.40209815156428    0.30139711667191
C         1.20504711680109    2.39936087088564    0.45305117420173
C         2.89004679744003   -0.07983585357131   -1.42103529678437
N         3.76053156390904    0.98316090135781   -1.95303346734959
C         5.06485612457427    0.85984245263009   -2.32965449256694
N         5.61872626797489   -0.29966688926536   -2.41851681339051
C         4.87417974975733   -1.43691129523849   -2.17622927339691
C         3.61881605890940   -1.40049528794728   -1.69239187184896
S         2.65810379356608   -2.85304366190305   -1.66618359972466
N         3.60804396224940   -4.02981586351906   -2.35027488728905
C         4.86542965206047   -3.90712399310781   -2.61673687975038
C         5.66236394149255   -2.64845938967218   -2.54979765191443
O         6.81930148260967   -2.59364676073627   -2.94872759496879
H         4.46635215594131   -0.89196225758154    0.50288636356415
H         3.44596524898116   -0.77150797017480    1.85104370150364
H         4.31206843595279    0.70957856118385    1.37904348894837
H        -0.57616596891819   -2.15906354238341    0.48312025877983
H         0.69981600776888    3.34090404465784    0.47049202371861
H         1.98579558453919   -0.06624905342431   -2.04665811644219
H         3.23558562606106    1.81514889451826   -2.20582719068273
H         5.69460795896910    1.72260365582834   -2.60831771289945
H         5.43013720548980   -4.73709799195341   -3.06951602434320
