26
 energy: -46.154047388824 gnorm: 0.219133126779 xtb: 6.4.1 (79825abcba525fcdf90b791dcacef51065a7a4e7)
C         3.81809812310681    0.20245358423203    0.88031302857338
C         2.60370257605688    0.11370362998471   -0.07003722364357
C         1.69609909736278   -1.03259500569376    0.34550195868719
C         1.02210235281460   -1.91593274164338    1.02776261923848
C         1.69701968738057    1.27910348433352    0.12157816707426
C         0.98398129752082    2.23945109332275    0.19921733201469
C         2.96631739823766    0.00824466729431   -1.61576990988844
N         3.87285294654686    1.09724669627205   -2.01949723770014
C         5.20747299221984    0.82084013855019   -1.99299924134534
N         5.66854402522713   -0.37964290365936   -2.06637852940421
C         4.86831188242217   -1.50063374486652   -2.16325805761828
C         3.53995492960023   -1.36049383945917   -1.99836007134923
S         2.42643029876969   -2.69241878091237   -2.13832627595072
N         3.44716060506803   -4.00055880072858   -2.09316704798933
C         4.73014142203585   -3.98009187571541   -2.23674763247607
C         5.56430717481516   -2.77475434882265   -2.51088379114190
O         6.69222375451189   -2.82150777649490   -2.98656466293688
H         4.52573027430015    0.92187598579345    0.44881550828772
H         4.25410742199035   -0.79991171342429    0.95399879513227
H         3.47654905104307    0.51283192968004    1.87442037280280
H         0.18771617043729   -2.50747187349471    1.32868252039953
H         0.28676786180414    3.04914478912175    0.21807876736518
H         1.99533312185500    0.05660839389872   -2.12968551802057
H         3.52113148020663    2.01489564597066   -1.76280805297430
H         5.84219417939959    1.71541910506375   -2.11731715459113
H         5.19892460364411   -4.97100350884158   -2.34208931647773
