26
 energy: -46.152687817255 gnorm: 0.213708091080 xtb: 6.4.1 (79825abcba525fcdf90b791dcacef51065a7a4e7)
C         3.89920014259399    0.14286588825906    0.87704661563040
C         2.63571965568840    0.13648770982027   -0.01142121723876
C         1.68451123406652   -0.98744564075885    0.36592985516833
C         1.13508382557413   -1.93940206893978    1.06731795919035
C         1.82689523707265    1.38034846170229    0.11332111460644
C         1.04551565600807    2.28484787204818    0.02362220071885
C         2.91714272320262   -0.01460734162434   -1.57022589045401
N         3.80470958825851    1.03885450608108   -2.09288361226017
C         5.14754139312226    0.82235681725970   -2.00208216714703
N         5.65294609705287   -0.36231201663146   -2.01809479707548
C         4.84371655633524   -1.47681952803795   -2.11503893810042
C         3.51070289839632   -1.37229351545203   -1.96170380434080
S         2.39466801166172   -2.70937260082021   -1.97711047911569
N         3.36304568156909   -4.00165657823728   -2.36104646308318
C         4.64477620841535   -3.94904749928484   -2.50758383675624
C         5.53467936454289   -2.75321021053753   -2.46437209970578
O         6.72068038290562   -2.86028359126637   -2.75175837246034
H         3.74839587323868    0.94491661814160    1.61085494469113
H         4.71238450679577    0.41885277005512    0.19672880403210
H         4.15219357675056   -0.80768098074116    1.36046658783510
H         0.32353283940213   -2.61797673184325    1.19995680825986
H         0.34940017625222    3.09563373505741    0.03438044394177
H         2.00063996882912    0.13415636329159   -2.15942096620084
H         3.45107932940454    1.96151941826790   -1.85769851319617
H         5.79026153472602    1.71958602687336   -1.97999085935541
H         5.10486348524814   -4.94281521430642   -2.62379845911952
