26
 energy: -46.150807932717 gnorm: 0.219411449674 xtb: 6.4.1 (79825abcba525fcdf90b791dcacef51065a7a4e7)
C         3.47532702419267   -0.38329542105836    1.06780302388920
C         2.36160503289896    0.02656535916617    0.07914930880626
C         1.16224033101257   -0.90491036264469    0.14468351789218
C         0.01479779152413   -1.42837128792361   -0.18607477904322
C         1.98014274057692    1.43152007655240    0.39145666220794
C         1.96766916537781    2.57172998633139    0.76089526288803
C         2.92123129152004   -0.17264978986799   -1.39700529320671
N         3.75299076443559    1.00870920750829   -1.68561398315659
C         4.75118790071343    0.91889599341430   -2.60965373325680
N         5.26049070041960   -0.20287320376331   -2.98565251343270
C         4.82503740830278   -1.39099172253403   -2.43326459885747
C         3.68295339267957   -1.46154842247381   -1.72472484016662
S         2.98442929550114   -2.94659781513110   -1.14142039429687
N         3.77741357061034   -4.08755681090765   -2.04946694484100
C         4.88652230879690   -3.85910554157572   -2.66975871836605
C         5.66276566453557   -2.58779294336395   -2.74069691260211
O         6.80754043403702   -2.54480873715958   -3.17462902175145
H         4.42615325267575    0.07223473068607    0.76296909138840
H         3.60960650741246   -1.47058642534650    1.07390067617027
H         3.20535066042454   -0.05045968891077    2.07655127601894
H        -0.81856734365461   -2.09302777252478   -0.20622271616341
H         1.73169140020418    3.60036566557000    0.92908961689316
H         2.01954085410795   -0.06509103628387   -2.01720222505467
H         3.44876507650745    1.92776739045326   -1.37827750865261
H         5.21282678957203    1.81150973013072   -3.06652101046299
H         5.23174454258694   -4.79787751673474   -3.13050723590627
