26
 energy: -46.151394295254 gnorm: 0.214469625297 xtb: 6.4.1 (79825abcba525fcdf90b791dcacef51065a7a4e7)
C         3.56718871003447   -0.57834971950527    1.00086446625164
C         2.46564433669786   -0.14547028030143    0.00838570021774
C         1.25391267012677   -1.05291787486498    0.14499715754142
C         0.01281727335622   -1.41117415140198    0.32211700316167
C         2.02913022345476    1.23645336602042    0.34998431904323
C         1.64438252540350    2.35342985716818    0.55259688188499
C         2.93553689079748   -0.07039932074747   -1.50999040749279
N         3.75176499679780    1.13625132219011   -1.73020346927187
C         5.06576656276415    0.96351116975063   -2.04938072883785
N         5.63348220098402   -0.14871690425150   -2.36525764237024
C         4.91343370762494   -1.32660616398793   -2.38727274849632
C         3.68995127933197   -1.36603559233191   -1.82789914503239
S         2.74170903560498   -2.80183097103175   -1.55793619693779
N         3.81785007658420   -4.03055240278968   -1.85344276768375
C         4.93725325262464   -3.80448226029373   -2.45585697511180
C         5.56916366913855   -2.54581066920969   -2.94601689808963
O         6.53483620141473   -2.52343103101914   -3.69942893845013
H         4.53672587956160   -0.29850991900664    0.56936785089412
H         3.52127820059223   -1.66894375972150    1.09449543027559
H         3.49937483658371   -0.00338346047107    1.93148521577713
H        -0.85201586234717   -2.03464912112630    0.31834272148193
H         1.09911804685766    3.20085793103578    0.90843184789550
H         2.06827804743557   -0.04615531440557   -2.18566273950019
H         3.27421016349211    2.03261058214405   -1.71761849847107
H         5.73604132975961    1.83670237676930   -1.96651752143952
H         5.59801508843551   -4.64048542372884   -2.73380107481533
