26
 energy: -46.150335958436 gnorm: 0.216445820804 xtb: 6.4.1 (79825abcba525fcdf90b791dcacef51065a7a4e7)
C         3.75687685320878    0.17334804925143    0.84793353190132
C         2.49825421002170    0.22485830292724   -0.04594253413601
C         1.56096890537787   -0.85390291641919    0.47192607745013
C         0.65987604959846   -1.63225294090388    1.00318840070580
C         1.71214464149017    1.48920707784270   -0.02591685064683
C         0.99015113175640    2.44326197512309   -0.09819216757195
C         3.03183873911196   -0.01907395553402   -1.52502509486005
N         3.95929339781024    1.05799108067945   -1.91295115454158
C         5.25208350327735    0.70750512577856   -2.16626267896403
N         5.75488859481855   -0.47835062554217   -2.17424590813408
C         4.92184721283416   -1.57613548082114   -2.08887572938488
C         3.63449084231766   -1.41295457980444   -1.73187670042786
S         2.58265166962086   -2.79207769720582   -1.57311437627978
N         3.42419816250777   -4.06587812072151   -2.22456814055621
C         4.57290145115451   -3.97626423035062   -2.80725516094999
C         5.49948059258792   -2.81350198798169   -2.69211716371804
O         6.68577495014826   -2.90737075011667   -2.98288914437915
H         3.45303936989119   -0.14655728068468    1.85284413716645
H         4.22465816841839    1.14968685961396    1.01590094671774
H         4.50919584906033   -0.50609917446340    0.43127120712139
H         0.14998759709952   -2.54991424628823    1.18915376421651
H         0.31073924341426    3.26775754095764   -0.07225478805503
H         2.13581876396002    0.03148007584167   -2.16051801739081
H         3.62138373554010    2.00053510533806   -1.74235004067164
H         6.00009886709778    1.51197333931459   -2.27535605395039
H         4.95380795766267   -4.87847454935843   -3.31092884769564
