26
 energy: -46.155389543526 gnorm: 0.226284029674 xtb: 6.4.1 (79825abcba525fcdf90b791dcacef51065a7a4e7)
C         3.52066880701922   -0.52449864770658    0.95800740693977
C         2.38827429070779   -0.06992169325774    0.01099043206970
C         1.19999568958919   -0.98391672837700    0.26203719712242
C         0.29908439622932   -1.83396263134862    0.66924423305080
C         1.90978014281942    1.29854362271846    0.35053890155730
C         1.71257613183818    2.47971164012783    0.29884935555251
C         2.82354486313032   -0.07585667270492   -1.51950129941732
N         3.63573589321523    1.09581692956586   -1.89132730251646
C         4.95699897367637    0.94265613398811   -2.18985541893804
N         5.62706501901572   -0.14684052317246   -2.34197078804208
C         4.96111882200493   -1.34163495703836   -2.15392951737275
C         3.64946116162748   -1.32306809011719   -1.85297738842345
S         2.70253196458857   -2.78123928386442   -1.74995521402078
N         3.67462798737323   -3.96330085074588   -2.39254357388931
C         4.89505744670379   -3.76809296928182   -2.76606716259916
C         5.72658893093077   -2.54041338333445   -2.60738536483368
O         6.91893350140068   -2.58152013734016   -2.88537572762613
H         3.49340060411651   -1.60516932658214    1.14750487143642
H         3.39367101806760    0.02195781764310    1.89903173375049
H         4.51957462925641   -0.23296363813469    0.61386442476556
H        -0.50347198322970   -2.40566549645591    1.07634461089942
H         1.31512388172336    3.45168480498920    0.49725824552562
H         1.86446820373606   -0.08894005386793   -2.05732984970818
H         3.36042715741791    1.96542761114996   -1.44449479884782
H         5.48453751977259    1.87741817428454   -2.44777104146526
H         5.38450273709511   -4.66111235666782   -3.18525696376684
