26
 energy: -46.153015848681 gnorm: 0.241280674833 xtb: 6.4.1 (79825abcba525fcdf90b791dcacef51065a7a4e7)
C         3.74063125252136   -0.25042052628305    0.81934596291709
C         2.51590480050387    0.12260509547594   -0.04476959585986
C         1.32777888326831   -0.75619160254777    0.31088558701027
C         0.46152387822471   -1.66855587236254    0.65327494614722
C         2.00007895885257    1.48989499405166    0.24051824734992
C         1.52428065462003    2.56572445317702    0.47057487487625
C         2.79098517314352   -0.16500382212117   -1.58539042622680
N         3.56092518876351    1.01282337581951   -2.02201767103503
C         4.90379446884023    0.84525665080705   -2.18614228435705
N         5.58438771702490   -0.24068060649299   -2.31523009568181
C         4.86796029462539   -1.41622349061013   -2.20936096679098
C         3.59278644898346   -1.45644323912758   -1.78078568516452
S         2.62473398612125   -2.90121465705330   -1.68559282832618
N         3.68088435825808   -4.06066247969877   -2.22908814928493
C         4.87865179580363   -3.89026279889459   -2.68007725093833
C         5.65775221459753   -2.62122327412715   -2.60030937690449
O         6.85622754515154   -2.63897982187758   -2.85328284087059
H         4.56349980732709    0.01924795860317    0.14505506528232
H         3.82927761573336   -1.32401632748524    1.01885477316979
H         3.75087267640753    0.29872698505781    1.76780366850577
H        -0.32274075380413   -2.34233183758653    0.91332602236688
H         1.17523809701507    3.50694521956102    0.83709767795255
H         1.84713387453899   -0.23475002083230   -2.14533592188298
H         3.18133963291694    1.90815230110738   -1.72879787817916
H         5.47745649995398    1.77999769962706   -2.31171499137647
H         5.41658661318988   -4.75789624829688   -3.09311325140872
