26
 energy: -46.155751078775 gnorm: 0.219325175424 xtb: 6.4.1 (79825abcba525fcdf90b791dcacef51065a7a4e7)
C         3.87592468678029   -0.44966425614992    0.64993600337657
C         2.54341882906965   -0.03003717366603   -0.00895696476583
C         1.38955793907128   -0.97073555118285    0.29781499240797
C         0.19391284278851   -1.44685109785351    0.50706018284412
C         2.14411712887584    1.31700974180959    0.48396277906192
C         1.57204960256121    2.33038685182982    0.77123387058791
C         2.78387995280036   -0.09350984987248   -1.58059633104233
N         3.60125245640936    1.01901744630770   -2.09529340994529
C         4.91761721221740    0.93165703362136   -2.43860869013892
N         5.54396192752614   -0.18882013630075   -2.54516275879166
C         4.82620593156930   -1.35390333940418   -2.36135562008268
C         3.52972883169547   -1.36491480741169   -2.00026196950801
S         2.61443011891530   -2.80811974849327   -1.66419728330004
N         3.70698163951889   -4.02253599588454   -1.95861939605388
C         4.92491296201523   -3.88762373946962   -2.36545601632631
C         5.63970920424794   -2.59164565841001   -2.54801790459678
O         6.84802965618908   -2.54991681831773   -2.74518378335184
H         4.67697475721056    0.18840447409209    0.25536149738869
H         4.07369535503529   -1.49050260300513    0.37098764169036
H         3.77337855635050   -0.38268426413302    1.73908147952122
H        -0.72145996801925   -1.88982859911224    0.82727132180355
H         1.04525578058498    3.22566904358127    1.02228021786815
H         1.77554208173626    0.00616984523422   -2.00788716745598
H         3.15953121330003    1.93362736841618   -2.08836833873411
H         5.46110456496394    1.87572005026968   -2.61739340685421
H         5.46205997785690   -4.82373727357002   -2.58437368299099
