26
 energy: -46.151474353322 gnorm: 0.215846806597 xtb: 6.4.1 (79825abcba525fcdf90b791dcacef51065a7a4e7)
C         3.54846148568860   -0.47457379729318    0.84461754865413
C         2.36194233327775   -0.00416547464716   -0.02526003899288
C         1.16484499493583   -0.85616868412553    0.36392620363143
C         0.46179093007675   -1.59757821878511    1.17390376924291
C         2.06013161351782    1.42934718640993    0.24100837664954
C         1.88099617072148    2.61414809315524    0.21140404454476
C         2.76349453942317   -0.12392034096322   -1.56028943110844
N         3.56610391405020    1.02091396208854   -2.02494035992809
C         4.91924393381495    0.85603365690143   -2.01310948064673
N         5.57438577115899   -0.24957600832206   -2.09998297770046
C         4.81784271972036   -1.40226789807284   -2.17293246281786
C         3.50859145340018   -1.42873095364651   -1.86225003454687
S         2.60770059558217   -2.90485841635476   -2.06960257293128
N         3.74821668309631   -4.03802023132270   -2.48230995127851
C         5.01547732266938   -3.83391611202317   -2.62183069064505
C         5.73936865691999   -2.53940292692190   -2.46678667556358
O         6.92270726168561   -2.40499198748007   -2.75366197238310
H         3.64587894536087   -1.56688331503901    0.80135418036174
H         3.32343177122379   -0.14948890057838    1.86635691327747
H         4.50032341513567   -0.08806160047756    0.46277060662929
H        -0.37891751709106   -2.19445036514352    1.44524226533389
H         1.50207748862789    3.57701279638789    0.47857141779933
H         1.79351555424850   -0.16962317706262   -2.07634251421953
H         3.08758984737018    1.90062559003110   -1.85520920942919
H         5.53746668133789    1.76236134757379   -2.13545412261261
H         5.61892683000563   -4.71910519818547   -2.87687849632174
