26
 energy: -46.150659688586 gnorm: 0.230446470717 xtb: 6.4.1 (79825abcba525fcdf90b791dcacef51065a7a4e7)
C         3.70990655137167   -0.08546244183156    0.90820242384966
C         2.53540740768879    0.06804853952884   -0.08315263034898
C         1.51423474842651   -0.97691518972000    0.33598296293240
C         0.56846543753867   -1.80597220035744    0.67981671914607
C         1.91095890608249    1.40083502399506    0.14199487350144
C         1.70908433499181    2.55811781788768    0.38003333980404
C         2.83267070685386   -0.06411562981573   -1.64073659583141
N         3.68737121987126    1.05839015654616   -2.06523120900913
C         5.02833889598929    0.85870305964289   -2.20751316930408
N         5.57736295695142   -0.30422622582361   -2.28030479395115
C         4.77732277854096   -1.42456576452230   -2.38591086802615
C         3.49850703750915   -1.40546005439541   -1.96683088654062
S         2.55155355608474   -2.84898227008798   -1.73645201317614
N         3.63046287203874   -4.09614286594195   -1.92541011939084
C         4.82036629145978   -3.93566084465449   -2.40022527927987
C         5.54427536388316   -2.66655158002798   -2.69878688982066
O         6.73207536649676   -2.70416788356503   -2.99605808701705
H         4.29399384725466    0.84364291011001    0.89784682338306
H         4.26117531560655   -0.99917591556413    0.66020982628227
H         3.32958604149316   -0.24152169433122    1.92419539497207
H        -0.34192024449140   -2.34667114560669    0.80437268344144
H         1.48211284847785    3.57889096453847    0.60042467126517
H         1.86429333758536   -0.04249882077667   -2.16134849882592
H         3.37562586373362    2.00132100331980   -1.85222140775288
H         5.56261131176891    1.81412004243672   -2.06493394484730
H         5.37005793057432   -4.88958322914973   -2.42535692263911
