26
 energy: -46.150287928562 gnorm: 0.218741184405 xtb: 6.4.1 (79825abcba525fcdf90b791dcacef51065a7a4e7)
C         3.60466215059530   -0.37493617637963    1.05005419784922
C         2.42866488250642   -0.10343787804926    0.08614663534024
C         1.26685468039017   -1.08234761085220    0.13462564292847
C         0.14297147542269   -1.71060132818535    0.34010208485050
C         1.92430925094165    1.27994504079603    0.30710869510201
C         1.81668546733461    2.45652315177918    0.50909925435423
C         2.92442219339728   -0.05202363910831   -1.42497278482164
N         3.75001348668889    1.11816835143313   -1.77106177675188
C         5.01802885269790    0.92857181414861   -2.23420708441066
N         5.61331943914741   -0.18259775660020   -2.49889909270741
C         4.86373944007986   -1.33333879742607   -2.35641231966367
C         3.62757518249756   -1.35385538530643   -1.82458551947662
S         2.69959290397102   -2.81167471145971   -1.60741414674778
N         3.82383583428438   -4.00676966025620   -1.85838411479336
C         5.00288466081135   -3.89635045632634   -2.37289895955627
C         5.48701964609919   -2.58237206411827   -2.88563261057084
O         6.47912123224831   -2.50671165576103   -3.60024015539658
H         4.34235964599535    0.43691827733213    1.01546069269204
H         4.07888788226734   -1.35022483062236    0.89451680152488
H         3.21393063378610   -0.44777909617973    2.07145651151702
H        -0.64333688386320   -2.42212538132595    0.22999163902545
H         1.34908419092669    3.39330206640576    0.72324995683391
H         2.04581955025407    0.02204788898829   -2.08211019397301
H         3.48451354024301    2.07448030470709   -1.55506607381181
H         5.59954010901492    1.85669265502389   -2.37217019870892
H         5.55549255965713   -4.84523258989386   -2.45661044763804
