26
 energy: -46.150420026916 gnorm: 0.232316930610 xtb: 6.4.1 (79825abcba525fcdf90b791dcacef51065a7a4e7)
C         3.65252236365027   -0.14541378889223    1.01619618339344
C         2.47535662636438    0.02159217964105    0.03019997352016
C         1.50198626989426   -1.06786314461752    0.44978865531825
C         0.70581183601718   -2.03516628020173    0.81099173770955
C         1.88475529116300    1.37424058085015    0.22636186438270
C         1.64863583015220    2.54910611244933    0.25200732414742
C         2.78794748008809   -0.03855712901038   -1.52882845815881
N         3.72251769152232    1.08478202858211   -1.71701864168882
C         5.03355076131907    0.83950614489687   -1.99870185333114
N         5.61950682240147   -0.30311023922973   -2.09976548265985
C         4.80943037668539   -1.41970916749473   -2.15773614520525
C         3.47947818022332   -1.33301958356456   -1.97045341093828
S         2.52097619086537   -2.77968848195515   -2.11869221194718
N         3.56984709273734   -4.05190455859526   -2.30973176964222
C         4.82088854406522   -3.88951792156423   -2.58468617727516
C         5.58686192369048   -2.61032246326301   -2.61235312929004
O         6.72704065325582   -2.52473917089050   -3.05203705988774
H         4.31430626384109    0.72905611368829    1.05916614231937
H         4.16283118582596   -1.07417443390077    0.73824212227738
H         3.23256620069096   -0.37766442887739    2.00155721323062
H         0.18754212475293   -2.91963296587104    1.10388558801137
H         1.35459294246845    3.57406380968674    0.32318810966096
H         1.91440729813338    0.19703433259996   -2.15387483657744
H         3.33955625596297    2.02275718319394   -1.64476857617323
H         5.69560282330787    1.69976014726674   -2.19931984873658
H         5.39010072177668   -4.82795155692302   -2.67468739890101
