26
 energy: -46.151408319660 gnorm: 0.214475370909 xtb: 6.4.1 (79825abcba525fcdf90b791dcacef51065a7a4e7)
C         3.72789049328369    0.00124398215858    0.96984905282031
C         2.45158108923513    0.07119125548765    0.10270409230496
C         1.48686232888442   -1.07747453090892    0.34826888343782
C         0.41057028438486   -1.72255111290955    0.70254054792571
C         1.72227406377435    1.36045158787226    0.25391978031826
C         1.32214501928156    2.48565305002768    0.15126732039446
C         2.88461873298927   -0.10107055947085   -1.41871133749216
N         3.76692037386865    0.96429931956269   -1.92591811746125
C         5.10658995581176    0.78123002831377   -2.09936679842444
N         5.71294178363107   -0.35278045384728   -2.17344953669069
C         4.90070513245101   -1.46406972108364   -2.06535051207605
C         3.59189429230609   -1.41846558240641   -1.75503260989135
S         2.63319310192463   -2.87119999738153   -1.69173605715121
N         3.58742004118229   -4.02608032496117   -2.40648245020240
C         4.77121677930328   -3.85484874240654   -2.89267077893096
C         5.60565999418445   -2.64296340971336   -2.65005963350934
O         6.73923773516282   -2.51409101648470   -3.09620693199722
H         4.50748410324164   -0.68224726980778    0.60988312314141
H         3.49935239110145   -0.35629981824171    1.97989987101304
H         4.15407821925544    1.00635026652483    1.06662341447051
H        -0.06602152357618   -2.63405364971893    0.98306685076776
H         1.00347486821941    3.49544310541334    0.29562654810759
H         1.95093042389157    0.02110673163948   -1.98665290009378
H         3.39217921119399    1.89090193606032   -1.74521510760924
H         5.67883315390945    1.69891561259408   -2.32069991919882
H         5.19539764311219   -4.74131079833139   -3.38967785164183
