26
 energy: -46.146235524946 gnorm: 0.226313565884 xtb: 6.4.1 (79825abcba525fcdf90b791dcacef51065a7a4e7)
C         3.84784712739555    0.29525076314348    0.90316656329418
C         2.60003492568290    0.21037610822633   -0.00323274142438
C         1.68568976294635   -0.88136800948881    0.52826057148711
C         0.75987845245121   -1.77846663705301    0.72351485910604
C         1.73756631238857    1.41065102553465    0.17686485122052
C         0.79239108162337    2.12624187626067    0.35376207865201
C         2.98042920566258   -0.04815275934204   -1.52650673107441
N         3.85896667488768    1.03332932135770   -2.00535565746157
C         5.15349999226193    0.75393159142130   -2.32851782830116
N         5.73673266557437   -0.38864567417437   -2.44465308362514
C         4.98612164076180   -1.48646190736238   -2.07349246856410
C         3.68913933160366   -1.39223816449092   -1.72661854570172
S         2.61158814861698   -2.76060764090858   -1.72626505481490
N         3.30615389470058   -3.88610440928499   -2.72925831423819
C         4.57599811562035   -3.77698408835452   -2.93580726502698
C         5.58631147618332   -2.80844787407216   -2.42100029787500
O         6.75245851630267   -3.13094937784355   -2.22930301085782
H         4.50500336656376    1.14373442942184    0.67355144080402
H         4.47603256013429   -0.60232215984361    0.90714105406452
H         3.39943285612961    0.40890106266333    1.89677018215811
H         0.14274873230213   -2.54004676616449    1.14282171899008
H         0.08955599305223    2.88606576615045    0.61976339933310
H         2.00695194320602   -0.15460697206000   -2.02677494488651
H         3.38159058250304    1.87885884848818   -2.30346437015512
H         5.77675168459759    1.57889879181509   -2.71527861075990
H         4.99742178408351   -4.54471785088633   -3.60345041346721
