26
 energy: -46.155212249482 gnorm: 0.218518115266 xtb: 6.4.1 (79825abcba525fcdf90b791dcacef51065a7a4e7)
C         3.65845940249795   -0.26432968131427    1.01025341041095
C         2.46926632326239   -0.01750778901816    0.05594870542553
C         1.33913380524094   -1.01392144242849    0.25689088041117
C         0.30571391762092   -1.66958199360031    0.70654557523994
C         1.84011715811294    1.30350643562279    0.33170199308648
C         1.47108622409132    2.43184680845561    0.49718094379269
C         2.94159485954556   -0.09670569300311   -1.46146161512746
N         3.79817868936060    1.05722808405894   -1.78615970933462
C         5.08464428896668    0.92793999575912   -2.21813684050961
N         5.61807063063789   -0.18683650605902   -2.58126249895750
C         4.91618842643289   -1.34888270131397   -2.32949355219573
C         3.65497655787393   -1.39275165170485   -1.86175123598866
S         2.68654318454226   -2.82387938393077   -1.64366430907165
N         3.58538228805937   -4.03380084817756   -2.33888969967615
C         4.81414926458136   -3.86187582927908   -2.69616769140262
C         5.63084624634301   -2.61440908408328   -2.67058532842082
O         6.77013313583065   -2.64531486927136   -3.11972251153699
H         4.50710856257284    0.41144652107695    0.84405146286341
H         3.95421297483364   -1.31794832041243    0.95841253188172
H         3.29026382102537    0.01925747682046    2.00285113159760
H        -0.51132130047326   -2.35387617293978    0.73598290711323
H         0.99701866820825    3.38929632478512    0.52201204743873
H         2.01573075656220   -0.12846308018325   -2.05393600333762
H         3.34351990557201    1.87746359280176   -1.39606225642711
H         5.64742668327433    1.85900299462166   -2.40520667787510
H         5.31750186248223   -4.68619167857245   -3.22522341182259
