26
 energy: -46.148137879322 gnorm: 0.230824282728 xtb: 6.4.1 (79825abcba525fcdf90b791dcacef51065a7a4e7)
C         3.43835876072543   -0.49825676037845    1.08969459251162
C         2.40001124814848    0.03043604648395    0.07573352191350
C         1.13179831643174   -0.80732251378901    0.06110481856313
C         0.27145082959696   -1.76493620487820    0.26802266047350
C         1.95092580269130    1.42188029671592    0.35707368550241
C         1.56225451623736    2.52009608877583    0.63916553859760
C         2.94585366703072   -0.01487023401206   -1.41822231331090
N         4.00333679840198    1.00553094866216   -1.52423525731374
C         4.97700579970019    0.87726435370752   -2.46966096027889
N         5.39996680140492   -0.24058017645001   -2.94992980564834
C         4.79904906470257   -1.37654002940877   -2.44508260373848
C         3.60338766346348   -1.33707221921261   -1.82847993166010
S         2.75604241531489   -2.83550478902320   -1.56341848617083
N         3.74641088422455   -4.05320977082270   -2.10334894428869
C         4.95778995955822   -3.87934467772861   -2.51493821086771
C         5.62083482306558   -2.57305622758240   -2.79387134275988
O         6.80674362693381   -2.50192441790462   -3.09255941952265
H         4.30470696808627   -1.01600623035526    0.65855861914891
H         3.01524174833530   -1.17590936615616    1.83938041049267
H         3.81367483476343    0.37846330898895    1.62982389427756
H        -0.57909749497019   -2.38341528356600    0.44330188495820
H         1.45011549146348    3.58012869151898    0.71546709332535
H         2.10077193289893    0.15476518502168   -2.10109818308774
H         3.70195276135005    1.85623734993265   -1.05824898196041
H         5.48539555578702    1.81353212940211   -2.75869377584057
H         5.45022858987556   -4.82640234703535   -2.78576357242678
