26
 energy: -46.151164517423 gnorm: 0.224316196865 xtb: 6.4.1 (79825abcba525fcdf90b791dcacef51065a7a4e7)
C         3.50980306518018   -0.42182819151611    1.10892631631465
C         2.48114693934194    0.04273553629539    0.05448531693664
C         1.27025444372858   -0.85099843776062    0.26754962426263
C         0.42692435656467   -1.83672363985964    0.13648869452412
C         2.15557176521079    1.45751978757421    0.38514142560549
C         1.77775012205750    2.53721824567978    0.74322124631650
C         2.83031064183632   -0.06034029645661   -1.49450168445633
N         3.68269918255775    1.06512423764539   -1.91579878389969
C         4.88371247537039    0.94544116264072   -2.54948358635602
N         5.44174079242623   -0.19772055372710   -2.75176123734075
C         4.80181679596670   -1.36849633225382   -2.39657261108944
C         3.61231461800800   -1.34990699172546   -1.76720645323032
S         2.73110953515696   -2.83007101980809   -1.51002214962804
N         3.69668291472255   -4.05928119754011   -2.06847574261692
C         4.88213543352819   -3.91165672809509   -2.55835675202247
C         5.58695007444457   -2.60401980869783   -2.68929074794079
O         6.75281007316341   -2.59849244640325   -3.06531456271946
H         4.32493157923851    0.30854950819213    1.19026439802570
H         4.04159360864448   -1.34237258454908    0.84422511415008
H         2.96781902976679   -0.49751657408914    2.05853911833952
H        -0.31269687936579   -2.59997000602434    0.22067327575099
H         1.44873113314282    3.48679051445440    1.10671157549709
H         1.92950820929540    0.09886680664633   -2.10480229877146
H         3.26808810481418    1.97626136243214   -1.74374147053241
H         5.49522965324102    1.82464659241067   -2.81714384011998
H         5.46458646450751   -4.81060658208783   -2.81409170717828
