26
 energy: -46.154965674775 gnorm: 0.222256322406 xtb: 6.4.1 (79825abcba525fcdf90b791dcacef51065a7a4e7)
C         3.76509804744081   -0.07894054421258    0.86427257768902
C         2.49982040950604    0.11130293668310   -0.00098958803432
C         1.48938875293508   -0.93449047472024    0.44145977525884
C         0.55794818833006   -1.65042342414574    1.00705260522970
C         1.91402955911337    1.47592899056090    0.10667627172970
C         1.38723843288005    2.54913868712315    0.02047207069400
C         2.85203195587838   -0.07447688681959   -1.54155231802951
N         3.78734899838096    0.97896465871618   -1.97302749101622
C         5.13002482689414    0.77957141714563   -2.09863543800809
N         5.68939304399262   -0.37263885614914   -2.23519769885932
C         4.84074165766921   -1.46175068973586   -2.23716101103797
C         3.53892474189708   -1.39627602363444   -1.90197666502896
S         2.53083820591041   -2.81372212144490   -1.81164501188338
N         3.49318677685586   -4.08058229962051   -2.28504816558645
C         4.74890624675273   -3.95570777850686   -2.55826791064738
C         5.57755102264052   -2.71596715988837   -2.57285350594184
O         6.76546264728440   -2.69273483345466   -2.87114904784559
H         3.74489854478535    0.66940671137658    1.66681250031006
H         4.74251899591787    0.09707993936113    0.40174153544634
H         3.83413917602483   -1.08446695939668    1.29484178926153
H        -0.17092082361662   -2.34090235105247    1.36574528630494
H         0.84498419375784    3.46888710244136   -0.02523786750524
H         1.86735419740089   -0.01134235939971   -2.02702374957455
H         3.52629471751056    1.93344384589360   -1.74390510083747
H         5.84687363859283    1.61895362206887   -2.08587785350779
H         5.17612198801114   -4.87879065204750   -2.98036402809885
