26
 energy: -46.154105198667 gnorm: 0.225055338920 xtb: 6.4.1 (79825abcba525fcdf90b791dcacef51065a7a4e7)
C         3.80997148580005   -0.21782088071917    0.77889497131797
C         2.52190736702657    0.03786606174878   -0.03431698774446
C         1.54231295403176   -1.02203642139105    0.44256759729861
C         0.62208350421056   -1.86266865732685    0.82538862911028
C         1.89624363845595    1.36437678290443    0.22231756673903
C         1.45719614619306    2.47700693052991    0.29984523626501
C         2.83072983135586   -0.04652361429005   -1.59297271717929
N         3.72315456517512    1.09104935155406   -1.87622827848474
C         4.98177989766909    0.91634900715147   -2.36984295722526
N         5.54189416875942   -0.22388346841374   -2.58261621495439
C         4.79798794935679   -1.36139368715801   -2.33961080391428
C         3.53069502334964   -1.37791688861643   -1.88677711058648
S         2.57112254637095   -2.82352639277451   -1.73516737986532
N         3.52676016012523   -4.03791415142129   -2.34112047170929
C         4.75277520010030   -3.82345846548493   -2.68458799176569
C         5.59738625540256   -2.61758014406590   -2.44728790282787
O         6.82119156820026   -2.62026904770517   -2.39299873147642
H         4.74266634110319    0.26470330638679    0.45990803234671
H         4.05512162650944   -1.28555684787750    0.76834987686692
H         3.56189334650660   -0.06492895056560    1.83545599139781
H         0.05836974339534   -2.65231249426063    1.26738525811066
H         0.94874666611958    3.39970173570122    0.47923201470864
H         1.89128258805653    0.02580353484230   -2.15995280023266
H         3.27449789640048    2.00229995595632   -1.87876789742140
H         5.60186132620507    1.82631344130834   -2.44769670127506
H         5.23750684109749   -4.77218681390066   -2.96335342693808
