26
 energy: -46.148059411416 gnorm: 0.223744400218 xtb: 6.4.1 (79825abcba525fcdf90b791dcacef51065a7a4e7)
C         3.77730786263099   -0.27926357721970    0.84162509691368
C         2.47780712130846    0.05681573512151    0.07732986103546
C         1.42701260878140   -0.93162542904256    0.55611202242032
C         0.69368391936419   -1.96773627718536    0.85400476859835
C         2.06307537010811    1.47394549028674    0.26887081076815
C         1.89177621896181    2.66016672871339    0.28483547828163
C         2.74797344889622   -0.11334036484628   -1.48150229109647
N         3.51181090491410    1.05503752413192   -1.95285494286516
C         4.85822483805433    0.91290182364013   -2.11185292396720
N         5.49160581739168   -0.20600423797758   -2.03433959250215
C         4.80680395501311   -1.40489468937311   -2.04359680951980
C         3.47271160597279   -1.40787500741966   -1.86596947144908
S         2.52897787850692   -2.85366165185008   -2.09535851026589
N         3.58744517164491   -4.02814130575793   -2.60073416976230
C         4.86685465439330   -3.90309551318954   -2.72135334019082
C         5.57611200291437   -2.62299420309126   -2.43479385207239
O         6.78088610273470   -2.52034827263358   -2.63135726941259
H         4.50434755896093    0.53624551263203    0.73741298815160
H         4.31065314454006   -1.11783834797509    0.38053394372646
H         3.54297924859453   -0.40255597631838    1.90517057311687
H         0.22708467023844   -2.84323519438098    1.24446398833906
H         1.45695816904929    3.63637494490466    0.28895649099821
H         1.77630115200240   -0.12197959926642   -1.99631980694896
H         3.03909265760440    1.95319257628022   -1.99199418683319
H         5.45512606755054    1.83876672759840   -2.18313095968634
H         5.30643347347246   -4.88439104604899   -2.95923974919709
