26
 energy: -46.153160748902 gnorm: 0.214793507884 xtb: 6.4.1 (79825abcba525fcdf90b791dcacef51065a7a4e7)
C         3.81813336380498   -0.00465002758578    0.88375378581296
C         2.57337192363135    0.08880409237017   -0.02599013154744
C         1.77191484659926   -1.15865136645581    0.30858257081586
C         0.87528540835929   -1.80337940597923    1.00170463230511
C         1.69569860550197    1.27497351631156    0.17310478374263
C         0.86754941770717    2.13332584110324    0.29192955428259
C         3.00733621664093    0.05764427158086   -1.55654712669531
N         3.96299049447200    1.14004561420543   -1.84956609314472
C         5.24471705276660    0.85719350088684   -2.21764910836997
N         5.70641024400785   -0.33158959207323   -2.39865935598363
C         4.92056292650363   -1.44756158155630   -2.19026523246005
C         3.60152430107683   -1.29249031972583   -1.97242869053689
S         2.46968163003223   -2.60954901095654   -1.83886117696407
N         3.31687763392085   -3.92939004878694   -2.38240380943534
C         4.57698230417669   -3.89987431029008   -2.66229503605582
C         5.53762092658765   -2.77040528903292   -2.50325145099866
O         6.73834419487593   -2.95582050107342   -2.65990017414593
H         4.31897239596460    0.97081052582718    0.93000241855888
H         4.55427679488608   -0.64386025668561    0.38398081280804
H         3.53958438973962   -0.37481637252439    1.87704490360103
H         0.28513188600849   -2.59188311435853    1.40993539898391
H         0.21532647171055    2.97673286615698    0.21888142177964
H         2.02669623857349    0.21689014870894   -2.02797554501266
H         3.57065074922789    2.06586021495783   -1.70599112234139
H         5.83888747549252    1.74737289683982   -2.48809246013657
H         5.03671271039231   -4.87586146118599   -2.88333223900447
