26
 energy: -46.153897343486 gnorm: 0.222914644227 xtb: 6.4.1 (79825abcba525fcdf90b791dcacef51065a7a4e7)
C         3.85443885901974    0.04281619284524    0.84023530854083
C         2.53447070088735    0.14191948573955    0.04420686448878
C         1.55148660983540   -0.89802546589863    0.55672435535726
C         0.88256599264187   -1.94091201818524    0.96288884384556
C         1.94498374255818    1.50633430737280    0.13266262664329
C         1.40275686317160    2.57167110556628    0.04453424622854
C         2.80518644044282   -0.14866385902745   -1.49662892683572
N         3.67920648405997    0.90482950185112   -2.04157716645550
C         5.02752150699663    0.81655968086535   -1.86110988931280
N         5.60341535573609   -0.33170922998404   -1.76647719360571
C         4.83945208216610   -1.45974148968924   -1.99071130772481
C         3.51052003639064   -1.47973829586622   -1.77880922741880
S         2.47675702613796   -2.85275869495923   -2.06112238617046
N         3.51626735298166   -4.08324519638297   -2.46172353148313
C         4.78610432394964   -3.92208211770720   -2.63088200225076
C         5.54857987958437   -2.64230854008770   -2.56282088552742
O         6.63407221923605   -2.54616574394026   -3.12238941486876
H         4.50367510315879    0.91770867566666    0.70773096927941
H         4.53273333778233   -0.77672930253020    0.57844977845836
H         3.53302062097120   -0.05054122477357    1.88388975645649
H         0.23285597917326   -2.74948561338646    1.20937871152686
H         0.96914211352799    3.54044738724565    0.16910135066476
H         1.79929606403206   -0.10939729459304   -1.93923648540984
H         3.25224914593970    1.82643846191522   -2.04619041155804
H         5.64578037399567    1.71703864137097   -1.70145064580062
H         5.34137818305125   -4.81053947723225   -2.97010887717455
