26
 energy: -46.145696642831 gnorm: 0.231472468319 xtb: 6.4.1 (79825abcba525fcdf90b791dcacef51065a7a4e7)
C         3.47898861942885   -0.68048914035728    0.90346229538436
C         2.39920360922020   -0.09974915411254   -0.03600782631981
C         1.17482316726627   -0.97308775136745    0.18442283160283
C         0.15031643036230   -1.74739849817860    0.40995683281412
C         2.01744549211298    1.28091331148115    0.37016829426167
C         1.99764176404513    2.46863074127871    0.53033770651814
C         2.80579277822957   -0.06925379624051   -1.57407672349520
N         3.61836258601676    1.10948004913166   -1.92199153332622
C         4.90434748529507    0.94432696094976   -2.34303867485984
N         5.57307461236572   -0.13125883653846   -2.57766557896766
C         4.90930552403401   -1.32043792065304   -2.35041833493446
C         3.64474200821241   -1.31238237653758   -1.88979162059898
S         2.70135722957653   -2.73511673494614   -1.54424304363167
N         3.68846247894054   -3.95078872049156   -2.09462916261541
C         4.88262178158748   -3.76526498753787   -2.54920430838265
C         5.70292183557705   -2.53104595829583   -2.71543581000064
O         6.90750037194603   -2.57226509786309   -2.93440047015529
H         4.16417923389919    0.05370955124308    1.34614509880658
H         4.11751364961787   -1.38938089165876    0.36491966758315
H         2.86104221239191   -1.07638808649697    1.71749310868523
H        -0.59086167417960   -2.37470537485751    0.85019850473963
H         1.79038605498230    3.49728809010239    0.73276137912343
H         1.85804186852178    0.02510721511504   -2.12373387069223
H         3.37982965179778    2.01350154601104   -1.52509847881195
H         5.42742562464112    1.88954733542731   -2.57007427772005
H         5.48620393698993   -4.67448085612758   -2.69676955013515
