26
 energy: -46.152886047742 gnorm: 0.221914546551 xtb: 6.4.1 (79825abcba525fcdf90b791dcacef51065a7a4e7)
C         3.83887898164386   -0.11004344254212    0.92931672148935
C         2.57605951854288    0.11830071853017    0.06969783167919
C         1.42057289368454   -0.81363373500033    0.39644889629762
C         0.39509165838309   -1.58955777288708    0.61177859940868
C         2.06393522644105    1.50335541887202    0.26022159468572
C         1.62286479019847    2.61788292066081    0.25811896373576
C         2.83985753440674   -0.09440110678314   -1.48499479958837
N         3.63554142880327    0.95136864540041   -2.15131352442145
C         4.98495401557880    0.81218520629086   -2.28557833837309
N         5.58873434143995   -0.31836574182544   -2.15738147631912
C         4.83574629014122   -1.46788747771486   -2.02326814931919
C         3.52462804745242   -1.44518676617869   -1.72025595720527
S         2.56871033045195   -2.90024453198379   -1.77104889215248
N         3.54135755664378   -4.10265672499108   -2.37381113348699
C         4.79205232535164   -3.92149687784040   -2.63841983927401
C         5.59171150334947   -2.67349013719461   -2.47457210720424
O         6.79120856858890   -2.68490109534990   -2.72302849807170
H         3.82257977372001    0.57575589761094    1.78600544015103
H         4.78955586254495    0.04699274981041    0.40795026030501
H         3.78342642267296   -1.17905398676555    1.16464918637107
H        -0.31154562263269   -2.38654973951405    0.65802987641952
H         1.09138420065112    3.54489210335598    0.27388479482681
H         1.84359202090240   -0.04036658678470   -1.94737350403163
H         3.25874275841417    1.87629285836852   -2.33628618081412
H         5.58088909503569    1.67821862893672   -2.62239423991499
H         5.30800401576908   -4.86291021196743   -2.88397064835595
