26
 energy: -46.150913694304 gnorm: 0.218155295563 xtb: 6.4.1 (79825abcba525fcdf90b791dcacef51065a7a4e7)
C         3.87825180309994    0.05910483148924    0.88401791054044
C         2.60348930526007    0.11084440463396    0.01332721405958
C         1.68872311339183   -1.02518523719101    0.44117871936486
C         0.71932419461289   -1.89243503500779    0.53162372241300
C         1.82732904955854    1.37038765430555    0.18087777384152
C         1.08774476069440    2.31237519158848    0.22980291919658
C         2.90397010756730   -0.08240499945084   -1.53724255290445
N         3.76654032297519    1.03417777465704   -1.96143993281043
C         5.11308894916949    0.83570403493339   -1.88575391809417
N         5.68767015623811   -0.31645297380368   -1.92475676824459
C         4.88519599198817   -1.42162212501751   -2.12727578128824
C         3.57455616430017   -1.43088328680970   -1.82149774619364
S         2.43703818241335   -2.74248730376735   -1.96042014103332
N         3.43788916543157   -4.01895824905083   -2.31266900589765
C         4.68216168037305   -3.85274037939530   -2.61471466548202
C         5.58171863649726   -2.66404815838135   -2.57434420471873
O         6.72391691261719   -2.70036499440552   -3.01561302434091
H         4.31911673817291   -0.94175475207679    0.97577935784045
H         3.75750921605547    0.36976108873520    1.92765760078813
H         4.66264903981651    0.69550703265373    0.45863207415354
H         0.39924968333266   -2.85617952389093    0.85630895594174
H         0.51909710571488    3.18083329087794    0.48374500294148
H         1.95631693312887   -0.03846330522988   -2.09337325412032
H         3.37778371331418    1.93033856019749   -1.68315757321185
H         5.67347645576285    1.77022154110723   -2.06250326729448
H         5.20549026068842   -4.79705948311524   -2.83185295657623
