26
 energy: -46.150914919112 gnorm: 0.213667572970 xtb: 6.4.1 (79825abcba525fcdf90b791dcacef51065a7a4e7)
C         3.99596530201269    0.12283503315196    0.87510969889278
C         2.67838826868977    0.04720357861450    0.07257037839841
C         1.69959150310120   -0.94792212024532    0.67431716494423
C         0.57509224059648   -1.56029088119117    0.92037141592750
C         1.90126445552807    1.31449747058649    0.15618818138077
C         1.03141706082890    2.12723455677659    0.01639163924942
C         2.90509631112718   -0.12105338337411   -1.49337780677096
N         3.76160943529332    0.97738417575601   -1.97353204252556
C         5.11741322363524    0.85493185703157   -2.04505070747664
N         5.65652044634556   -0.31281717702403   -2.11473682664834
C         4.87713040928132   -1.45135922759725   -2.16622242017293
C         3.55635231491198   -1.44511509626069   -1.90763204269785
S         2.45221027783661   -2.78880830185417   -2.00202818359105
N         3.45399520808203   -4.07766957251884   -2.30273336638031
C         4.71115840393935   -3.92045085218491   -2.55152450114622
C         5.56295643892576   -2.69819658541266   -2.61752685360520
O         6.73394911239740   -2.64444566412207   -2.97325285759015
H         4.52899494230422    1.00532076727723    0.49881154878415
H         4.46437342146562   -0.85115609303558    0.69565214270526
H         3.80395959366881    0.25919230987943    1.94552102235876
H         0.03864149070324   -2.36543016421374    1.36830329239529
H         0.39013491193714    2.96677852281750    0.17760378405127
H         1.92194293701021    0.01580038368247   -1.96660001895922
H         3.36625606350227    1.90175229516434   -1.82890763568345
H         5.75839620229549    1.75356342281694   -2.03092317410378
H         5.30718978747549   -4.84289934611285   -2.63273889862796
