26
 energy: -46.146756821960 gnorm: 0.212003894735 xtb: 6.4.1 (79825abcba525fcdf90b791dcacef51065a7a4e7)
C         3.79061074292385   -0.08936404816566    0.92423059173609
C         2.52998343616491    0.13541051802517    0.06046332559941
C         1.45743776840048   -0.81636548059515    0.56463163118179
C         0.51203815616699   -1.71239729733529    0.50646522024835
C         2.08891584044503    1.55446520059134    0.15368518688459
C         1.49751679182757    2.55352039520437    0.45177074036493
C         2.78521701267492   -0.14882725655911   -1.48419370534559
N         3.55553278099792    0.96908561863119   -2.05656797778566
C         4.88307184255801    0.83572713137611   -2.33615509181994
N         5.51705013438324   -0.28321132256463   -2.26419103348628
C         4.83388903864243   -1.47977318490578   -2.17526274548898
C         3.50679908543471   -1.41404699272253   -1.96107805964828
S         2.58733987052089   -2.89288360951735   -1.92660019167737
N         3.66125280007387   -4.10092283169131   -2.30410818406492
C         4.93071348277085   -3.97979535957121   -2.50627586690279
C         5.66034163592678   -2.67923858031264   -2.50221122077901
O         6.87593436021483   -2.54624746273471   -2.57502392656405
H         4.68040655474233    0.21572569128316    0.35882310436100
H         3.83488120307673   -1.13993173913437    1.23183023924653
H         3.71061027586533    0.54098640668906    1.81725809840551
H        -0.07627439858828   -2.48149965386010    0.95260593384014
H         0.85375041333744    3.39475532103018    0.59303240879389
H         1.79817922404655   -0.13676376358347   -1.96882722340200
H         3.07205041439186    1.86180663774989   -2.08772736424798
H         5.54096932511009    1.67552945838162   -2.61988104129675
H         5.40465202416061   -4.95153716003567   -2.71570494779720
