26
 energy: -46.149988039627 gnorm: 0.228195192589 xtb: 6.4.1 (79825abcba525fcdf90b791dcacef51065a7a4e7)
C         3.74830275197945   -0.28816785492126    0.85705320228535
C         2.54335990227694    0.00340139386119   -0.06430384421563
C         1.42865550701577   -0.95525625829322    0.32147726524242
C         0.62391460640342   -1.96107073054854    0.52338344141944
C         1.98990102062061    1.33576017142704    0.30373214853581
C         1.47899248016017    2.39662933331692    0.52789324951702
C         2.82840259762916   -0.06249788478130   -1.62837180793395
N         3.66900164004961    1.09413296007348   -1.98379582000323
C         5.02329589309039    0.94480019834666   -1.94020449042412
N         5.64439338704531   -0.17075850905506   -2.11019634836259
C         4.89945970243433   -1.32718748430290   -2.22903836012018
C         3.58635183284899   -1.35865340325390   -1.93557565195585
S         2.55991059338643   -2.75884720019467   -1.79619338827363
N         3.54307930005608   -4.04468569117826   -2.16383274644810
C         4.75651977201191   -3.81009575404265   -2.53746871444652
C         5.60422363651067   -2.58561905965502   -2.61412819782326
O         6.73716126011463   -2.71709621956383   -3.06114059343295
H         4.64046236977179    0.05087079418728    0.31519900160124
H         3.88010290673216   -1.36704196706504    0.99463684543422
H         3.72978958787391    0.27417469367223    1.79762112517955
H        -0.23303947604336   -2.59510865734626    0.54062405707293
H         0.93238603375864    3.25685325623706    0.84930016407878
H         1.94922063416500   -0.02718158892873   -2.28795546576128
H         3.28657366763979    2.00795324645405   -1.75938936694175
H         5.60454718921818    1.88206087536698   -1.89238385793622
H         5.27006357426446   -4.64021094425488   -3.04731373823807
