26
 energy: -46.153573610854 gnorm: 0.234358706127 xtb: 6.4.1 (79825abcba525fcdf90b791dcacef51065a7a4e7)
C         3.64435229231249   -0.35920319115899    1.00816353756921
C         2.51722724549897    0.04141746514150    0.03097833615160
C         1.29968551217990   -0.82209487529359    0.31795571951825
C         0.16675271597540   -1.41261228511588    0.57831939650234
C         2.03198175647622    1.42523684591009    0.28890830432822
C         1.76496573942491    2.54890840108037    0.60950742228352
C         2.81142775312616   -0.18719900336706   -1.51598036073157
N         3.50819715739922    0.93962002816087   -2.16058810589305
C         4.83509578533072    0.87654287202301   -2.46665133245352
N         5.54588238089990   -0.19754082491010   -2.48268839845756
C         4.89332912900395   -1.37804461444824   -2.18779408019127
C         3.59786881171745   -1.46383733097734   -1.83313238035874
S         2.66291377888659   -2.93247336522512   -1.78294284220240
N         3.78189967732193   -4.07622735672291   -2.22436938768810
C         5.04445947700392   -3.89158119567470   -2.42165752523299
C         5.73942381601094   -2.57335652210487   -2.47760376130156
O         6.89042543179993   -2.59042577917328   -2.89660007889081
H         4.61276809970261   -0.44279572818075    0.49857049126683
H         3.33432381832762   -1.24729246338735    1.56981260870703
H         3.72005877241173    0.45953547125568    1.73285342357933
H        -0.70404082884549   -1.98267288937967    0.80944953507420
H         1.54119867908304    3.57072615156135    0.82832925710141
H         1.80367284320522   -0.21471864906032   -1.95522001755535
H         3.02390995144568    1.83221912105816   -2.14034744288437
H         5.26479422447819    1.85953694631993   -2.72680390030150
H         5.59133181844507   -4.77939267397594   -2.77589167578050
