26
 energy: -46.151559947681 gnorm: 0.224185647444 xtb: 6.4.1 (79825abcba525fcdf90b791dcacef51065a7a4e7)
C         3.81224238300614    0.02417431470162    0.90557643661778
C         2.53610413449218    0.14303137033403    0.04351908483640
C         1.47890355160705   -0.79425962107437    0.60408127786270
C         0.66533925114129   -1.79171954156014    0.81198416647276
C         1.97143204823446    1.52073572604217    0.04834442474696
C         1.47489515686317    2.58985563833433   -0.16880263554567
C         2.76185440016503   -0.21696187798389   -1.48988964511591
N         3.55238656683227    0.90261690959097   -2.03056526760801
C         4.91006624191435    0.83347404475940   -1.92937944712117
N         5.56497957498434   -0.27159157157881   -2.02450607077358
C         4.86354364412186   -1.46085380861047   -2.01997051103536
C         3.54527346639149   -1.50768532980130   -1.75288756930435
S         2.54014746077567   -2.91774889784029   -1.93995481750624
N         3.61145125511957   -4.09157371414032   -2.41912442102978
C         4.88021387147158   -3.92769673692930   -2.59365183502099
C         5.63342241547587   -2.64357365388540   -2.50689645066776
O         6.80232638614280   -2.63427291492767   -2.87327193314403
H         4.42388795934949    0.92491131752134    0.76750216784716
H         4.37064270619335   -0.84330145869378    0.53686956970087
H         3.50217931810915   -0.10336258858335    1.94904906859214
H         0.11687045850184   -2.50215695612616    1.38742512409724
H         1.09099753423554    3.58551911506226   -0.22662189862477
H         1.81348565480200   -0.10364155392213   -2.03487954762880
H         2.97236021634596    1.73148300913284   -1.93986051651675
H         5.53580424923742    1.74241983617220   -1.95882355548404
H         5.51287453217920   -4.76970121748453   -2.91541161494213
