26
 energy: -46.149020252687 gnorm: 0.223296979521 xtb: 6.4.1 (79825abcba525fcdf90b791dcacef51065a7a4e7)
C         3.78195228312195   -0.44962039644508    0.80382971006218
C         2.53803000647522   -0.01360544163207   -0.00137026210032
C         1.39201747516883   -0.92496291096954    0.40667415281980
C         0.29514049601761   -1.62986713601413    0.40390436596024
C         2.09324569388722    1.37840602936359    0.28396826493693
C         1.60979821422288    2.46969513292501    0.39390331663104
C         2.74338246012692   -0.07257013294211   -1.57815627963434
N         3.51637938771869    1.05777875780355   -2.12176919286423
C         4.84607680512749    0.91499711632974   -2.38602582810633
N         5.51658496634340   -0.18476083993331   -2.37698156303797
C         4.81610991566470   -1.34627707768924   -2.11892666135062
C         3.47950276021092   -1.36085761854541   -1.96198254164167
S         2.67008645024064   -2.89329406510199   -1.78867510877380
N         3.75678204290500   -4.01021793678260   -2.36028142396455
C         4.97944727453592   -3.81015049667205   -2.72378769785115
C         5.67523946590625   -2.54477038741546   -2.35162093229702
O         6.85545145706331   -2.58226671783705   -2.02551102453327
H         4.14960666866767   -1.35668887061436    0.30728263933300
H         3.60135274049585   -0.63914595551531    1.86765946504127
H         4.58406288107619    0.29707284516072    0.82137050272906
H        -0.60511103884323   -2.12570904997193    0.68738203112956
H         1.27421970827552    3.44449072269803    0.67537590853847
H         1.74032200123255   -0.03213167542141   -2.02703622303165
H         3.02028904197980    1.91938321953341   -1.91390134740493
H         5.42170960066914    1.79735561804404   -2.71570417717613
H         5.53599216312753   -4.70403439483629   -3.04626214850161
