26
 energy: -46.152034790156 gnorm: 0.231089908013 xtb: 6.4.1 (79825abcba525fcdf90b791dcacef51065a7a4e7)
C         3.83756052190112   -0.23241865556813    0.71486772580187
C         2.53673639302459   -0.02295000210854   -0.09122045753871
C         1.46086367589230   -1.01910635712888    0.30951367161752
C         0.58065898084777   -1.76851920682219    0.91255333650568
C         1.92321138762239    1.23991860761115    0.40445793492614
C         1.59259946287257    2.32872556380453    0.78117304791009
C         2.75287525457561   -0.03606450543780   -1.66761274124918
N         3.60423827830307    1.11644748304518   -2.01057774195867
C         4.92470672373618    0.88964837818939   -2.26205068879142
N         5.59226905231689   -0.21031226946113   -2.20223706623696
C         4.82487069357561   -1.35770367516692   -2.23338698731281
C         3.49694553500329   -1.32980849370465   -2.01613284230250
S         2.52398088051064   -2.77119127418257   -2.11260643816898
N         3.56723662350713   -3.99745356285953   -2.51641119065977
C         4.84467615940708   -3.83622068388017   -2.61246453594195
C         5.63707148033343   -2.60731002030289   -2.31970195789295
O         6.85870104027552   -2.69673684214471   -2.30302728235439
H         4.48972525139451   -1.04725943054891    0.37543049525292
H         3.61622944895359   -0.43874366585113    1.76782187176597
H         4.53716482104252    0.61095029555846    0.69200881126433
H        -0.23206482410539   -2.37216912913564    1.24685621145073
H         1.08216896037186    3.14828981724749    1.23925747691086
H         1.82928844351351    0.04135488930076   -2.25943399593902
H         3.20111676343596    2.04870280592055   -2.01894288182194
H         5.55974760675205    1.76181507358832   -2.49581508059998
H         5.39939528321514   -4.74629807285835   -2.88960393709599
