26
 energy: -46.153240244489 gnorm: 0.228734667140 xtb: 6.4.1 (79825abcba525fcdf90b791dcacef51065a7a4e7)
C         3.83859042957961    0.24835882646271    0.80488506429114
C         2.53685820693330    0.20392026722712   -0.02536618219801
C         1.73423420587362   -0.89697759629331    0.64860416477168
C         1.03012917486597   -1.92762426137307    1.02548652625773
C         1.74297311741592    1.45964629567363    0.07385941830731
C         1.04472306475868    2.43351196135909    0.10127529311634
C         2.84567451521931   -0.09195916161879   -1.55800719594335
N         3.76249814159843    0.96639274412319   -2.01632321661606
C         5.10146259849786    0.73558007335843   -1.90581031227190
N         5.66899544103289   -0.41938677795438   -1.96138561760095
C         4.84935200426851   -1.51436111937529   -2.15004786343349
C         3.52818112419997   -1.41768187747521   -1.91230138538826
S         2.43088026372198   -2.75234220925622   -2.13176511854188
N         3.44327082161038   -4.04776905613619   -2.36000769492772
C         4.71502108297456   -3.98200824707013   -2.57308245565833
C         5.57659929887799   -2.76627186591483   -2.51400843347758
O         6.76978146674755   -2.81315246148953   -2.78745408310031
H         4.27408101629501    1.25556950001928    0.78547967802458
H         4.57310094674718   -0.46346131760225    0.41235956022968
H         3.67529065967124   -0.00671393357814    1.85821832951895
H         0.50335464834139   -2.69569519372986    1.54437694185010
H         0.37039942360504    3.26117040670232    0.05295007124656
H         1.99884180600771    0.11912456938151   -2.22701899419133
H         3.45482214359703    1.91439053935734   -1.82058719581703
H         5.75260262341195    1.60449457233348   -1.70680849140929
H         5.20007947467925   -4.94240677520958   -2.80784497042436
