26
 energy: -46.152905183159 gnorm: 0.209942602836 xtb: 6.4.1 (79825abcba525fcdf90b791dcacef51065a7a4e7)
C         3.79219574336369   -0.28549665043535    0.77187856923606
C         2.50383155885016    0.04059346205410   -0.01525652711737
C         1.30188935541932   -0.87129774296554    0.16969426610919
C         0.19164518400936   -1.42248898520604    0.57414804202545
C         2.06123872898805    1.42035438267132    0.32726136987700
C         1.64081029409237    2.53950443390711    0.41364539281813
C         2.89514076231814   -0.05279282262688   -1.55475538754499
N         3.72222451591553    1.05805999053032   -2.05741467220276
C         5.02377628291124    0.85179618714398   -2.40631527291658
N         5.53844524711727   -0.31320652716988   -2.59870832101558
C         4.80449870104114   -1.45183082772066   -2.33180991021130
C         3.56146778195265   -1.40768696356211   -1.81772024400704
S         2.65630121279894   -2.84822316503524   -1.44478509646903
N         3.54660255669690   -4.04926963853628   -2.16590291668596
C         4.79252599318069   -3.97600716729649   -2.49663159041424
C         5.57754458884487   -2.70942071256163   -2.55430519833960
O         6.78824275537265   -2.66974721320846   -2.73676053782917
H         3.68202938255031    0.07130141738150    1.80389623969558
H         4.59060739576265    0.32104878330326    0.33039090248193
H         4.05613788781468   -1.34854499202535    0.73311437493305
H        -0.48527275772429   -2.24235030975047    0.65340165837026
H         1.13121017901927    3.47135884581194    0.53205688905555
H         1.98450476128129   -0.00446853157697   -2.16930042175559
H         3.43233368896290    1.91220533737303   -1.59042863769691
H         5.71653711466790    1.70328530068073   -2.52313210887790
H         5.24272708992348   -4.90369855170218   -2.88324260154416
