26
 energy: -46.148740340566 gnorm: 0.228049731720 xtb: 6.4.1 (79825abcba525fcdf90b791dcacef51065a7a4e7)
C         3.69770548532227   -0.17690009654944    0.91212503227822
C         2.49381984016498    0.11536482132610   -0.01039285841328
C         1.57271414233140   -1.03696357363807    0.35583244738580
C         0.87896394685008   -2.11137354162907    0.60958554970996
C         1.88160929261344    1.43862496185071    0.29148119190830
C         1.29130391482350    2.47615783199275    0.18292614025539
C         2.88002612933331   -0.00198169738999   -1.54954038570960
N         3.74260835492132    1.08990513284915   -2.03375410236040
C         5.09243187038070    0.90193101758326   -2.00284121051528
N         5.59228425027136   -0.27315775954576   -2.17149625596373
C         4.79792223636270   -1.39347879192084   -2.31378954771833
C         3.51591375116815   -1.34999633898394   -1.90644906957270
S         2.48345099472535   -2.75133614399247   -1.84465017653556
N         3.50900083761139   -4.00907067650601   -2.19323501964041
C         4.71890194175556   -3.87396162589041   -2.62330352762064
C         5.55683063027818   -2.64039529805707   -2.62666924738603
O         6.76227812427984   -2.65391742182842   -2.84430996932676
H         4.08551598244490   -1.20279206251293    0.87149685096745
H         3.51385322955651    0.06317691573349    1.96513560239314
H         4.59418067978903    0.40905313679609    0.67924968572937
H         0.49112762015080   -3.00154469397995    1.04986946077097
H         0.84676152756992    3.41400277758233    0.43767135554563
H         1.93857830610150    0.02790318518578   -2.11702752623943
H         3.43816945298602    2.01533571693010   -1.74640046453470
H         5.77613417301587    1.76794655403334   -1.96869873118777
H         5.33235833644980   -4.75996171951372   -2.85009748563864
