26
 energy: -46.152774487301 gnorm: 0.228299644828 xtb: 6.4.1 (79825abcba525fcdf90b791dcacef51065a7a4e7)
C         3.86468282154282    0.05228334005269    0.87042889066563
C         2.57715856693502    0.16115983198873    0.02412759047750
C         1.57136117270786   -0.86466072517527    0.52059632671214
C         0.80361256253800   -1.88897621481664    0.76833934917603
C         1.89080335680483    1.47636892672719    0.15096876221196
C         1.29348536159780    2.51556480024232    0.15246991444715
C         2.88070455253621   -0.02932018876860   -1.52618780407945
N         3.81212862782857    1.01025379859936   -1.99784763429703
C         5.12739036231691    0.74327560766628   -2.23685100712207
N         5.71342149103818   -0.40168072164279   -2.30593851043414
C         4.85175652525986   -1.46635671152144   -2.13165102341066
C         3.52945866681734   -1.36607744988697   -1.90179195748012
S         2.45140098628917   -2.72854698839318   -2.02434845971161
N         3.41862999610293   -4.07645912501357   -2.07689312795390
C         4.69748693971376   -4.01213265347721   -2.24260698612333
C         5.50770668140552   -2.77408765619399   -2.42864530454385
O         6.67988108055592   -2.85102077288393   -2.77612547683626
H         3.65789865597257   -0.10172355100754    1.93721103553125
H         4.33082871552004    1.00312383317367    0.58957260091569
H         4.51854795683435   -0.76901553215141    0.55551868040512
H         0.07002079183984   -2.57750400749719    1.12110586439203
H         0.63004577871759    3.35324882609233    0.16659778250621
H         1.94975235443126    0.10553828051881   -2.09574900437585
H         3.53315301069598    1.98423798504644   -1.92570658164469
H         5.62994072230437    1.64130710467822   -2.63632569583852
H         5.27883816658967   -4.93603655406270   -2.38818427104306
