26
 energy: -46.150311575271 gnorm: 0.225511233174 xtb: 6.4.1 (79825abcba525fcdf90b791dcacef51065a7a4e7)
C         3.71963309120330   -0.29626614883781    0.69365330224661
C         2.45137466503063    0.02096614500923   -0.12895410337958
C         1.31370210071577   -0.91106444766532    0.25502187874885
C         0.19367788583727   -1.40932621538631    0.69922649478548
C         2.00837568923041    1.38130686246956    0.28356519034439
C         1.64823479801872    2.41221297023699    0.77778198988529
C         2.73295128256200   -0.14041491599955   -1.68669971971131
N         3.47885824627299    1.03117862516550   -2.17834924949483
C         4.82478342981722    0.92300487983425   -2.36569182475769
N         5.50793217478390   -0.16886620818936   -2.38168802048983
C         4.91119743739123   -1.40802868002318   -2.26019059273993
C         3.60288035527689   -1.37522910220383   -1.94619481172486
S         2.68167279403592   -2.84846597455185   -1.82577279431820
N         3.77352633940512   -4.08911945949405   -1.98002841062636
C         5.03763536582324   -3.90169862729545   -2.16435383412327
C         5.74084864546514   -2.62764508155125   -2.49008431850935
O         6.90162758942529   -2.71230426906898   -2.87228721465408
H         4.67732868147910    0.00514393905219    0.25040046670986
H         3.77038772019973   -1.38930239195102    0.74811091152306
H         3.56507767200704    0.11803223170730    1.69650392628432
H        -0.66196464410743   -1.93827844389709    1.05243610653934
H         1.42531196901252    3.31738289870275    1.30031334748672
H         1.75648680536134   -0.24728881198796   -2.18102133811835
H         3.17574005322739    2.00021365777424   -2.15064745919727
H         5.36784014882177    1.83195122507086   -2.67794717072156
H         5.66583016039565   -4.79506397585060   -2.30588145730390
