26
 energy: -46.155965805654 gnorm: 0.212468934973 xtb: 6.4.1 (79825abcba525fcdf90b791dcacef51065a7a4e7)
C         3.81189393044660   -0.08253683154940    0.92116098632255
C         2.56667914216584    0.06592051127236    0.01938537652337
C         1.57405945925223   -1.01654125063716    0.41104867831790
C         0.56568791288915   -1.84204302994038    0.36897242935240
C         1.91947294069809    1.38735137759935    0.24718294496585
C         1.31655938656126    2.35208902902682    0.62466886999166
C         2.89936965438390    0.00893531092145   -1.53559705169853
N         3.77135177816483    1.13460681003697   -1.91406597889357
C         5.03334046325036    0.86346543157976   -2.35244972185731
N         5.57174085214730   -0.30032073279978   -2.47434041328060
C         4.80583828584868   -1.43601677411236   -2.30123535645720
C         3.53334052191163   -1.34512786057260   -1.87245640604349
S         2.55072589300044   -2.77382202938886   -1.70858705790626
N         3.56543853256871   -4.02686703628755   -2.10279067826519
C         4.80006952423651   -3.95689222044753   -2.47409095493019
C         5.56483407042610   -2.68390812098493   -2.60998931538171
O         6.72306198723890   -2.65584917835973   -3.00795260521070
H         4.62131490037116    0.62408445911845    0.69749604613980
H         4.22077255033443   -1.09050032402425    0.79040257746650
H         3.57436957981309   -0.01246865092314    1.98882784889918
H        -0.00771000014084   -2.69244383398953    0.66001355631627
H         0.71890220153611    3.21991917050296    0.80283436536032
H         1.98615767795780    0.04495304049731   -2.14715684227269
H         3.30042492726787    2.03455116313952   -1.91629840456458
H         5.60645956465404    1.79825871803988   -2.48009557585058
H         5.34817622272263   -4.90727061422572   -2.56959154366492
