26
 energy: -46.147920684450 gnorm: 0.215499455139 xtb: 6.4.1 (79825abcba525fcdf90b791dcacef51065a7a4e7)
C         3.64550680011420   -0.01508149232734    0.99464747464976
C         2.44551826991797    0.03448953221925    0.02337565618172
C         1.28508628010324   -0.82817077882135    0.49202502269105
C         0.54272672283569   -1.61348771547813    1.22155663335506
C         1.90365690371410    1.42084860432243    0.06000806694176
C         1.67833070236951    2.59615001417086   -0.00791705522034
C         2.86439522220219   -0.19236505026836   -1.49484031722068
N         3.64512936725755    0.94788630054869   -2.00573065295678
C         4.99847326971438    0.82013081186153   -2.10796671688215
N         5.63408427424472   -0.29162882753414   -2.24624076324139
C         4.95953331768590   -1.49302406555107   -2.15675286520386
C         3.67236958763816   -1.46647053734406   -1.76449379209231
S         2.57530470977274   -2.81059302691940   -1.91725208256026
N         3.55885151050036   -4.07871684920891   -2.34111254262914
C         4.80670651957400   -3.93033735903159   -2.63761795176377
C         5.67325065719070   -2.71673770892559   -2.62767630532426
O         6.82203293244754   -2.81301627816365   -3.04202362577866
H         3.39946518644316    0.69722796061616    1.79250757031220
H         4.62890277178088    0.28309452962896    0.61478788273002
H         3.68238077286585   -1.01628697860490    1.43902094687220
H        -0.36239913909388   -2.11411094819124    1.48000427801221
H         1.46537027369811    3.64288758100784   -0.04039067483629
H         1.92040409485890   -0.24818474577409   -2.05611002212308
H         3.13282762633616    1.80520182833448   -1.82070650147670
H         5.66844887668768    1.69699505772392   -2.13693632606858
H         5.23386516104560   -4.90392748559025   -2.92470359981973
