26
 energy: -46.150631435333 gnorm: 0.228913711768 xtb: 6.4.1 (79825abcba525fcdf90b791dcacef51065a7a4e7)
C         3.78750120235448   -0.20996567656496    0.78657110229982
C         2.50409339886029    0.04653530557036   -0.03371565368437
C         1.60164877034263   -1.06737562159124    0.47147101337746
C         0.90834174097067   -2.16779778907338    0.56330336070499
C         1.97623695860225    1.41801083172999    0.20580382967750
C         1.63192497930182    2.53425533862428    0.47444218822299
C         2.72883550575476   -0.07450554026141   -1.60430176910944
N         3.60274207274187    1.07846847057503   -1.88298821535742
C         4.94024939093163    0.92946558340030   -2.10021094873875
N         5.52198223229478   -0.20161271657428   -2.30363007578579
C         4.83680616255312   -1.39547364602335   -2.19589223177836
C         3.50519800065083   -1.33172092657367   -2.01118151056480
S         2.44762541782818   -2.71552580560911   -1.99791477604511
N         3.48469786152264   -3.95257319777363   -2.38437890858189
C         4.74793157981898   -3.83114439925554   -2.62222272356610
C         5.62532824447232   -2.63854252029478   -2.44418465887540
O         6.84638557462902   -2.73460246460574   -2.42307837811785
H         4.18392096203585   -1.21307443970811    0.58377527795736
H         3.53848160268549   -0.20484079109204    1.85345106993538
H         4.56406757180771    0.55107345253143    0.64871605481839
H         0.30723971494702   -3.01897515000917    0.78879189557267
H         1.20303159968258    3.45633053060372    0.80291443087133
H         1.77572660165697    0.04976215795874   -2.13852992398435
H         3.26287726278442    2.01590036395718   -1.68962254572851
H         5.44563093991896    1.90886725855607   -2.03728791772511
H         5.25853836850391   -4.77835074995739   -2.85640480837411
