26
 energy: -46.152173550389 gnorm: 0.215698060146 xtb: 6.4.1 (79825abcba525fcdf90b791dcacef51065a7a4e7)
C         3.60529438725959   -0.42046783744004    0.90876910671611
C         2.45167408203621   -0.04752751710947   -0.04824417935125
C         1.25981814880483   -0.88259669759292    0.39056827284607
C         0.66452893179890   -1.94844575014462    0.84842560574529
C         1.97911243776214    1.35384984080055    0.12430772778230
C         1.66075163135598    2.47819934894759    0.39114796748877
C         2.80371474300872   -0.07996938906806   -1.59966790286313
N         3.67840310805124    1.07705173424723   -1.85841542508790
C         5.02390198063523    0.93608796950294   -2.02597258972439
N         5.62553259945359   -0.18010157655049   -2.25245009367775
C         4.85370971706789   -1.32493525557006   -2.24766551520981
C         3.54161351626168   -1.37608952864243   -1.95245447906069
S         2.53808701342492   -2.79932042940984   -1.98245567640951
N         3.62133824911854   -4.01381211279048   -2.30916157052800
C         4.87118844637676   -3.80342011161744   -2.55550229103989
C         5.65558144001447   -2.53570648418368   -2.59360078243097
O         6.86522071832328   -2.57386619158127   -2.78326007727635
H         4.45518656598259   -0.76484104711856    0.30578291827923
H         3.34109136961957   -1.21446737150968    1.61589808884037
H         3.96484042752717    0.44973436993725    1.46976345901970
H        -0.22454646061597   -2.50485704154026    1.03979713591629
H         1.15180056235017    3.40112028062097    0.56793027146562
H         1.92336385862679    0.01424361952461   -2.25186802745087
H         3.23556133975990    1.98007501380740   -1.71658083112191
H         5.59440945061882    1.88072206608231   -1.99795276963422
H         5.46205650142682   -4.71425078406576   -2.73995510753515
