26
 energy: -46.154715134669 gnorm: 0.225982683246 xtb: 6.4.1 (79825abcba525fcdf90b791dcacef51065a7a4e7)
C         3.90171154703389   -0.20696139453160    0.82514534180974
C         2.60410945841610    0.06686581633336    0.03328286722653
C         1.48188353536487   -0.89275547205523    0.39405068034614
C         0.50426153657181   -1.70211458706828    0.69276430062929
C         2.01121617822348    1.41895751820997    0.22634433092398
C         1.42277762220018    2.46252052641146    0.18845724666405
C         2.80559536864803   -0.15915182686238   -1.52883752227671
N         3.52812188520860    0.94319322723757   -2.18725889762598
C         4.89111356896364    0.94887425955489   -2.16413313291525
N         5.54371182397195   -0.15992482282188   -2.10240246736305
C         4.90027473654983   -1.38143346166374   -2.08558095402647
C         3.57971363473986   -1.44619861756204   -1.83401264531162
S         2.57558743305869   -2.86923031340876   -1.85023226200272
N         3.60106806729476   -4.09569880665320   -2.29669002491484
C         4.87339091956480   -3.90376047284747   -2.40359323685245
C         5.63381961532262   -2.62280382597340   -2.47229527798881
O         6.81481438232937   -2.59337130609963   -2.79639261755525
H         4.82128892319365    0.12753427683926    0.32816238973455
H         3.96455666144657   -1.27780909746628    1.04786843906131
H         3.85972395518387    0.32031175035242    1.78507240692896
H        -0.46661664447233   -2.11646718836576    0.84236079582468
H         1.10651831684055    3.47275958769128    0.33496083839176
H         1.82286078025935   -0.26623672271894   -2.01052655919639
H         3.00800734869473    1.81376739100322   -2.13017629472965
H         5.44378441202219    1.89229773418509   -2.31613492755043
H         5.41079632844193   -4.81523752738191   -2.70882334423800
