26
 energy: -46.153385561443 gnorm: 0.221720337963 xtb: 6.4.1 (79825abcba525fcdf90b791dcacef51065a7a4e7)
C         3.63444294558856   -0.12872410155356    0.97109204722874
C         2.44825790325774    0.04337957614591   -0.00314820248978
C         1.32323912341401   -0.92231756325885    0.33178343700519
C         0.21544225708268   -1.60104339796375    0.44202908191567
C         1.75251301982535    1.35780281585436    0.06880827062426
C         1.33286668440693    2.47670078828812    0.16199298571710
C         3.03668047963273   -0.03108774474196   -1.47966915658677
N         4.00496593129793    1.06904209784977   -1.63088255631801
C         5.18942675944810    0.78707516273703   -2.24395725692925
N         5.59818236958261   -0.34610959245904   -2.69996352976375
C         4.89442003790753   -1.47922790053236   -2.34339785363356
C         3.68364488623252   -1.39139496046090   -1.76230264482327
S         2.70890666981277   -2.78165493021078   -1.37421203319142
N         3.57457268504733   -4.04833436779054   -2.00769887457666
C         4.73561756182323   -3.94488299984687   -2.56298858542000
C         5.57635642630747   -2.73280644310888   -2.78173564568956
O         6.68715446495085   -2.74671891487271   -3.29805739323503
H         4.16334046674877    0.83270890562954    0.95069722254983
H         4.31862742366023   -0.88639983110114    0.57348800213987
H         3.21097647484025   -0.30944725939162    1.96570513115545
H        -0.57138455989036   -2.27633819389453    0.69012608120588
H         0.78837784749394    3.39174457332802    0.25305881666480
H         2.17924519804586    0.08036232421285   -2.15911185830485
H         3.80765437011235    1.92251128995601   -1.11674696331507
H         5.86692676548252    1.62985650835320   -2.46601761596772
H         5.24434140625005   -4.83121571783487   -2.97332354012708
