26
 energy: -46.156341622896 gnorm: 0.229225743327 xtb: 6.4.1 (79825abcba525fcdf90b791dcacef51065a7a4e7)
C         3.62126815503997   -0.37865469848225    0.80505277479540
C         2.43211435133276    0.07247670544521   -0.07141307181826
C         1.20876752515209   -0.73844569507205    0.32386508313495
C         0.11140175933352   -1.40826176456553    0.54105523471491
C         2.11487511737973    1.50145214917491    0.20123241677542
C         2.05564067265103    2.64753165042611    0.54722686668541
C         2.79636355287709   -0.18181774792843   -1.59933894530665
N         3.57414692138674    0.98702418393676   -2.04609329240100
C         4.87438479300873    0.86047043219387   -2.43555320386492
N         5.52461826577387   -0.24624889561975   -2.54278808957939
C         4.85395449967016   -1.42639102745512   -2.29009802392602
C         3.56776842090066   -1.47237993545637   -1.89643173721611
S         2.69535341264635   -2.93375744177926   -1.52654047945230
N         3.73842608137772   -4.14621013501016   -1.97052010050627
C         4.89232259133336   -3.95780532687145   -2.51833442597791
C         5.64151067328899   -2.66869070458818   -2.54521217097195
O         6.84368222440790   -2.55694499357646   -2.75245709298685
H         3.60738318491279    0.04199735043705    1.81864096551034
H         4.53431246376837    0.02086423986396    0.35007519581567
H         3.74226129235552   -1.46732808081802    0.84234649403025
H        -0.80375356513098   -1.94905816881094    0.62291853978293
H         1.82125847315683    3.68083918513739    0.68653489529934
H         1.82468170968745   -0.17601698205812   -2.11417825300122
H         3.14102561499350    1.90534289421810   -2.01827959951085
H         5.31530933396731    1.84922116295535   -2.65131928126650
H         5.45728471680740   -4.86076219357998   -2.79806126960519
