26
 energy: -46.154731557934 gnorm: 0.213642413388 xtb: 6.4.1 (79825abcba525fcdf90b791dcacef51065a7a4e7)
C         3.90921846976997   -0.25180187553404    0.83118886836691
C         2.57907764358665    0.05373242366039    0.10788195589548
C         1.42520351484410   -0.78234649523495    0.63699820211675
C         0.73412356742834   -1.88610858985528    0.70145388254543
C         2.07285222306937    1.44894137690534    0.22651990025572
C         1.53538453368915    2.49969344779491    0.43572720805497
C         2.75673039395849   -0.13682018530168   -1.46184090818875
N         3.50585513456149    0.97436845758714   -2.07404987213212
C         4.86179679396305    0.88373229449526   -2.18138441701464
N         5.53688700297552   -0.21204902881250   -2.23283405756013
C         4.82962161183510   -1.39645784675771   -2.17513633621954
C         3.53015380998536   -1.40914150720398   -1.82501448667023
S         2.53773879402950   -2.83775379370915   -1.91294106899597
N         3.55683292640448   -4.00330502960100   -2.51135354658636
C         4.81399757589913   -3.82716947444088   -2.74712328186984
C         5.63478672067447   -2.59949708154284   -2.53988580372492
O         6.85720223526968   -2.63159148019533   -2.61285325579762
H         4.74884670236823    0.30790344227553    0.39961459741538
H         4.05637878769277   -1.33741932407032    0.83815231618235
H         3.72927036938965   -0.08684039687220    1.89966736298104
H        -0.10414963351457   -2.48327006050283    0.97960466577870
H         1.20606481782126    3.49868670362734    0.62447894149310
H         1.72073704780467   -0.09504634869144   -1.82821708688632
H         3.00898378602916    1.86010008270659   -2.05745837916837
H         5.47376317328885    1.79354913304390   -2.30916521260115
H         5.30221488713635   -4.70056010539922   -3.20711575235837
