26
 energy: -46.147178721158 gnorm: 0.220597584551 xtb: 6.4.1 (79825abcba525fcdf90b791dcacef51065a7a4e7)
C         3.68686454748808   -0.33027800211707    1.01622251052000
C         2.53126805736011   -0.03032865350327    0.03620933051138
C         1.36288556954753   -0.97639399136381    0.26039716384162
C         0.16009308428269   -1.29900979617000    0.64672093502376
C         1.93383306471113    1.28616775558078    0.39237749672452
C         1.33913267748953    2.30963860801991    0.58094571494781
C         2.95040128652998   -0.09058067070814   -1.49760866927274
N         3.82143465678942    1.05116146130910   -1.82693167584988
C         4.97555847206459    0.87977149386119   -2.53186932405978
N         5.49641800543951   -0.22158763062591   -2.95001281740076
C         4.85983391268240   -1.35679799112403   -2.48910532296851
C         3.65508689113508   -1.39369387309446   -1.89028478111134
S         2.73170770584844   -2.84115207174457   -1.59739003586901
N         3.65679279116671   -4.06591760590029   -2.22931328947516
C         4.86230278076106   -3.87179053404600   -2.64899698497665
C         5.65849139885106   -2.61773767642497   -2.51763179246109
O         6.87284263451959   -2.59949830373375   -2.67785787199051
H         4.61673826079783   -0.22444468384179    0.44295455507258
H         3.66355564115928   -1.39496475808273    1.27345527469239
H         3.73704219953922    0.28308522710551    1.92314458234054
H        -0.75808694838453   -1.83976758964311    0.68133406565001
H         0.63742090322173    3.07006669416800    0.84818328460479
H         2.08385932956927   -0.02327072617960   -2.17128007962050
H         3.50629173889640    1.93497303004069   -1.43803712526661
H         5.45015078195008    1.83723442071940   -2.80868034208129
H         5.39779431510861   -4.73958424233664   -3.06486151459390
