26
 energy: -46.151100987144 gnorm: 0.224248893069 xtb: 6.4.1 (79825abcba525fcdf90b791dcacef51065a7a4e7)
C         3.96857045043566   -0.19936753481165    0.67288592466108
C         2.59532693634142   -0.03020098541202   -0.01368790034031
C         1.47063593271637   -0.91923235081779    0.49139703789346
C         0.60208128909273   -1.79419301522241    0.91577118909267
C         2.17531946064729    1.36847019280510    0.27658745596553
C         1.76231401132261    2.46479410875796    0.53000307759486
C         2.67182174204915   -0.17857788065825   -1.59610171616286
N         3.44207674163041    0.97922561321322   -2.08285236087758
C         4.80314867960442    0.98199040002528   -2.15893740752078
N         5.47355715260391   -0.11739099326037   -2.19124203688395
C         4.79607373412526   -1.32018946107070   -2.21711978322940
C         3.47842407990643   -1.42838867832417   -1.96521689066142
S         2.50950919060648   -2.85854421318746   -2.18750226668244
N         3.58096083635199   -4.10813945468437   -2.40119160006980
C         4.84268829821884   -3.83653217891197   -2.43789794423559
C         5.61296104618471   -2.56267527203751   -2.34963600925112
O         6.83120684479085   -2.67019544104592   -2.27913369841465
H         4.65506048957403    0.64070174716215    0.50700348393040
H         4.41793984204249   -1.12466342757313    0.29583877988373
H         3.89981245588902   -0.36832783457184    1.75361005616123
H        -0.32542018056252   -2.28130561723121    1.11359423600319
H         1.44220975865994    3.47211103790525    0.68783867763053
H         1.65806335886336   -0.22511419078242   -2.01964283111406
H         3.01691444817082    1.88954313294944   -2.23196963458737
H         5.27085210144534    1.96051063933046   -2.36472639191554
H         5.50803796658499   -4.71394200028555   -2.45280554631469
