26
 energy: -46.153948497225 gnorm: 0.218121652903 xtb: 6.4.1 (79825abcba525fcdf90b791dcacef51065a7a4e7)
C         3.90963079145377    0.02156832675997    0.94221647124424
C         2.61596081971811   -0.01257437255005    0.09897808846272
C         1.74190861558334   -1.20434811350755    0.45411964054200
C         0.66354911660589   -1.90313828530442    0.67518489924072
C         1.79886654510975    1.21357808226897    0.31311409768078
C         1.09810506703213    2.18535384474086    0.34922956244105
C         2.98278714577413    0.00197173547271   -1.44928787364044
N         3.88204497181912    1.08004885839353   -1.89629228860314
C         5.21843084289530    0.87155129302412   -2.06633628313307
N         5.73195603454056   -0.30961314452140   -2.08285915603307
C         4.87119519117458   -1.37948460723899   -2.22723165188905
C         3.58318397238401   -1.35358129656847   -1.83772060483601
S         2.42802271397960   -2.64548892220733   -2.01129722965479
N         3.38218048085336   -3.94017748491129   -2.42181459524193
C         4.65541693814797   -3.85619624079024   -2.61902039539022
C         5.53220281150578   -2.65027522275384   -2.64770347835896
O         6.71913880299074   -2.75080754828475   -2.93358840191194
H         4.45955215481320    0.93419294697491    0.67914849920556
H         4.44300103941818   -0.93187279215025    0.86014273560996
H         3.62946215760570    0.03977685880240    2.00165683404782
H        -0.12589342167355   -2.58470425514395    0.89636340451645
H         0.37495544076073    2.93202070192735    0.59744203044329
H         2.04364440578340    0.11643790365610   -2.00979405307002
H         3.44463085617324    1.99625532259023   -1.92648376582734
H         5.86332098297290    1.76020861761411   -2.18036400518066
H         5.08754652228065   -4.83029978313126   -2.89677337892127
