26
 energy: -46.153945291536 gnorm: 0.222588893303 xtb: 6.4.1 (79825abcba525fcdf90b791dcacef51065a7a4e7)
C         3.74048948840749   -0.31840302104322    0.79999657706495
C         2.49161768357343   -0.01352809877389   -0.05625642155574
C         1.42301897374242   -1.04718976659800    0.26006271291521
C         0.60623157881323   -1.89982423877572    0.81315364361125
C         2.00611277329163    1.35848714796770    0.25807823522773
C         1.80320450210211    2.53972028776442    0.27342804136240
C         2.75067206762783   -0.09296787372734   -1.62421075815129
N         3.56872405542082    1.01252461353205   -2.15279868192905
C         4.92935690454308    0.95412683445526   -2.09295430443701
N         5.54897652359953   -0.17375539240304   -2.14848600668486
C         4.86363421916510   -1.37191217437890   -2.18171029015895
C         3.54753216606550   -1.37269987024647   -1.90021869312981
S         2.56021680390998   -2.80386827220977   -1.79766581437025
N         3.54567765263746   -3.95084307219314   -2.48211870039358
C         4.79122800573120   -3.78004160053287   -2.77623642299364
C         5.65036944309000   -2.62289015293274   -2.39322439233213
O         6.87495245008599   -2.61944073981361   -2.36099779771749
H         4.36323187151310   -1.11966991158636    0.38206685250571
H         3.37852493166664   -0.61968284983482    1.78917907574961
H         4.39290481333859    0.55661422827501    0.89969087468539
H        -0.22474489122180   -2.54045214197737    1.00221877501691
H         1.38927084633051    3.46846225487456    0.60231023569522
H         1.77858885551630   -0.13484799801621   -2.13661592159961
H         3.12967320988120    1.92815605588234   -2.12976950570760
H         5.42480178319483    1.94059965161045   -2.09474609253995
H         5.27390461610212   -4.70137219646516   -3.13808395003619
