26
 energy: -46.153311524556 gnorm: 0.220515789681 xtb: 6.4.1 (79825abcba525fcdf90b791dcacef51065a7a4e7)
C         3.84739597675094    0.01578094500964    0.72400425364644
C         2.49719305379427    0.03961397581627   -0.02578422563886
C         1.48413484640703   -1.00776639169683    0.40679510885797
C         0.83312455799434   -2.12909630056558    0.54405986839688
C         1.89286288221257    1.34941757255743    0.34319642711412
C         1.57938976731082    2.47742051172472    0.60022384266068
C         2.79079789561788   -0.12031808296862   -1.58145725919231
N         3.63659462144790    1.04847603674439   -1.88024831734230
C         4.98345798411251    0.91356251431051   -2.04171293827567
N         5.58943242073435   -0.19792007809600   -2.27947750396884
C         4.86539422141856   -1.37222408908706   -2.22329592891981
C         3.55591011561014   -1.40589251049010   -1.91429664198926
S         2.48943641011974   -2.78164357799818   -1.85518201534344
N         3.44536637109223   -4.00347892332703   -2.44550085055570
C         4.71708146601048   -3.88529387612063   -2.63483407688114
C         5.55751051271313   -2.65736559335634   -2.53638182666256
O         6.76982207610507   -2.75071325183088   -2.68551559777616
H         4.39882560293812    0.95922616883691    0.62232613275962
H         4.54498476252657   -0.76008785651877    0.38983756162608
H         3.61297478873643   -0.05241359408856    1.79247798349368
H         0.16993791945078   -2.88413001277011    0.90012054700200
H         1.21787356660474    3.46927350119602    0.76635600265714
H         1.85599194919362   -0.08358927665137   -2.15942577444787
H         3.27916468406384    1.97554600346942   -1.66938807462302
H         5.60947953410936    1.81159045021103   -2.18398136518771
H         5.17439355718477   -4.82222978796160   -2.98948483131086
