26
 energy: -46.148630396185 gnorm: 0.219448644739 xtb: 6.4.1 (79825abcba525fcdf90b791dcacef51065a7a4e7)
C         3.90140318515864   -0.46087300987820    0.73770334680496
C         2.61554374346153   -0.05131907748851   -0.01371516567709
C         1.39448400168230   -0.83869943543050    0.43289734818424
C         0.13028541090132   -1.14145711463586    0.53377595725114
C         2.24699435814782    1.37373087580259    0.21067541649476
C         2.10319360745015    2.51216440360624    0.55709939178722
C         2.72522622778916   -0.17661230286238   -1.59617275420702
N         3.35643538881995    0.95744118195598   -2.29347152582960
C         4.71104190178536    0.92478732896427   -2.44276426388134
N         5.40243705656959   -0.16065356044160   -2.38871453083636
C         4.81299304098379   -1.40167502500300   -2.25160480583192
C         3.50859602448531   -1.45244539277560   -1.92398682378557
S         2.55478432402305   -2.90701443514650   -1.83441088768664
N         3.72863262771850   -4.08050885748724   -1.84670029810111
C         4.95385088981860   -3.90329871554805   -2.21345748406246
C         5.67283095308205   -2.61170865777907   -2.41014121135846
O         6.88096759609827   -2.63962404809931   -2.61084140972689
H         3.58089099743621   -0.90814788381882    1.68729225225198
H         4.46893305163672    0.46346332064521    0.89191777813460
H         4.50236761474439   -1.23094611234599    0.24064291974545
H        -0.80145109069534   -1.64853030397654    0.64061933413974
H         1.89482958471693    3.54751798447132    0.72048118688567
H         1.70174078884039   -0.13438682397951   -1.99611442135606
H         2.79800851512564    1.80410675687389   -2.23875629503615
H         5.22712365061556    1.82762032353107   -2.81310150362259
H         5.64966096869782   -4.75459589640424   -2.27592233085576
