26
 energy: -46.157604522719 gnorm: 0.220721629761 xtb: 6.4.1 (79825abcba525fcdf90b791dcacef51065a7a4e7)
C         3.90058080185504   -0.30403372470874    0.67984456257916
C         2.56064952040760    0.03104235162572   -0.01160817070116
C         1.50410377027703   -1.02366493732629    0.27426077101238
C         0.80783246207463   -2.04787907440413    0.68197198609524
C         1.96634318172145    1.33813294330604    0.38242391924177
C         1.34656529407348    2.35787146538133    0.49524158580224
C         2.80722130320027    0.01948445351129   -1.58353991908529
N         3.68868584401830    1.11958248711553   -2.01194681454416
C         4.99839141467506    0.92480150301056   -2.33605340935683
N         5.59543189746539   -0.20572713568576   -2.49282782498949
C         4.83155478356793   -1.34050843488954   -2.30536914768906
C         3.52795673585787   -1.27449511225042   -1.97728818172129
S         2.48101522781502   -2.66045140131560   -1.84848462881200
N         3.48777157155427   -3.96754616109379   -2.03043236647235
C         4.74635945393067   -3.89754930509254   -2.30995166477476
C         5.54089156705545   -2.64474718548815   -2.46169902897986
O         6.74332270277436   -2.72184320520104   -2.68276363618751
H         4.68926617044416    0.44851536324769    0.55277285479941
H         4.24026152976337   -1.25241141230903    0.24918616554786
H         3.76169074798650   -0.42283894087073    1.76050860371026
H         0.09953573053836   -2.82418598786754    0.86179118302324
H         0.88682915638933    3.26956102267845    0.81072699231210
H         1.87964942251131    0.10296623291242   -2.16826204623473
H         3.43121785369404    2.04101276811049   -1.67084067771641
H         5.53795313033720    1.86886469861499   -2.52635657827118
H         5.35640355613879   -4.81438896030159   -2.31336454346949
