26
 energy: -46.151166076768 gnorm: 0.215536788922 xtb: 6.4.1 (79825abcba525fcdf90b791dcacef51065a7a4e7)
C         3.87889511377428    0.28987100928769    0.76579028280938
C         2.53442022892848    0.12793838885873    0.02284762120848
C         1.65949854794821   -1.01888580324169    0.50214265361473
C         0.78968685273619   -1.96775473787809    0.70977720449120
C         1.81646328012047    1.42251944114544    0.18267511331056
C         1.24496384435649    2.46536143306711    0.33296840256933
C         2.87966359547258   -0.06551571127208   -1.51834774101586
N         3.80028102031473    1.00098040546341   -1.94936683839005
C         5.09933422543263    0.80597243695747   -2.31371015602501
N         5.61660779959358   -0.37036839970474   -2.40191923532903
C         4.83171197588218   -1.49187857780759   -2.22155553742238
C         3.52252718127491   -1.39617021112524   -1.92450701833318
S         2.45849576409586   -2.77491429436307   -1.94580477528189
N         3.40179989739949   -4.06428951391606   -2.39619225535109
C         4.68796628943472   -3.99224910586790   -2.48371510877055
C         5.55866980520802   -2.79102375804650   -2.33286834107504
O         6.78147536370221   -2.86144342435056   -2.35388332872477
H         3.86586611086694   -0.39739161233628    1.62136160910863
H         4.07698090934854    1.31029652496670    1.11185916246062
H         4.74160632725552    0.11725364800032    0.11220593175448
H         0.05158832930521   -2.62596393679962    1.10807713887270
H         0.72565771043009    3.35111772547465    0.62931807910385
H         1.93682125783243    0.01488893077730   -2.07856393167379
H         3.41269954856831    1.93976582395944   -1.96117624285819
H         5.81463764215238    1.63082203049531   -2.47668753042338
H         5.22502964935351   -4.86702678459991   -2.88257269237423
