26
 energy: -46.148726544177 gnorm: 0.223012998212 xtb: 6.4.1 (79825abcba525fcdf90b791dcacef51065a7a4e7)
C         3.67154194004605    0.24976472782950    0.90724847843452
C         2.45215286926762    0.13772784620271   -0.03420609493959
C         1.64122244527231   -1.06926091855587    0.40849850448601
C         0.86939757422961   -2.01456404175562    0.86754655417153
C         1.66948212458728    1.39558707388955    0.11466887123779
C         1.06676470452108    2.43166042033088    0.11634724562902
C         2.91359466327067   -0.00711249465394   -1.55011946939855
N         3.85762507645893    1.06993456738886   -1.89581308244613
C         5.16876983890954    0.75587826453874   -2.09726144303011
N         5.66044100439375   -0.42950700584070   -2.20794921183522
C         4.88307487595377   -1.56912872081800   -2.15014042432945
C         3.61489039765507   -1.35453414663489   -1.75388288757559
S         2.55131797450515   -2.73346029248143   -1.72341828656174
N         3.46926851066279   -4.00405663638342   -2.26941441213544
C         4.73246412360329   -3.98755926679024   -2.53613287040015
C         5.61495974073575   -2.78754146265059   -2.60670515543551
O         6.73023351248219   -2.71289916487639   -3.10795053368998
H         4.36688289657544    1.08502700588520    0.75447467304352
H         4.27262108838615   -0.66194464675004    0.81915897860636
H         3.18434391744893    0.28093752365249    1.88852634087251
H         0.25035205478563   -2.85545651399273    1.08284659497364
H         0.63251850945085    3.40811835141357    0.12147990216907
H         2.03082724956797    0.02634247304666   -2.20499443137806
H         3.53923344518669    2.00846135465904   -2.11823420542358
H         5.91760881385732    1.56103962205661   -2.19500005035188
H         5.14384344953240   -4.92814923208854   -2.93465260120985
