26
 energy: -46.153035848819 gnorm: 0.210098174731 xtb: 6.4.1 (79825abcba525fcdf90b791dcacef51065a7a4e7)
C         3.56413024656120   -0.28627661474325    1.08690605548326
C         2.44379894997335   -0.00531973121036    0.06137218538268
C         1.34350830263208   -1.05303713036343    0.01591674534787
C         0.24523159908883   -1.64977502396078    0.38703525797162
C         1.80041444249698    1.33152944314339    0.18722050309682
C         1.34783558876798    2.44062639223509    0.14484771057511
C         3.04239822275844   -0.04002395930511   -1.41252577127646
N         3.94242018604864    1.10854685968376   -1.61617599871153
C         5.12150665503484    0.90482312907581   -2.26929553758010
N         5.59229431502879   -0.25026917980707   -2.59062292424477
C         4.92431129464747   -1.41726165437348   -2.27708689419321
C         3.74916442985667   -1.38372169970298   -1.62190168773373
S         2.82326682107217   -2.80586237945621   -1.22975222858209
N         3.67050920951183   -4.02816822998366   -1.96684704443095
C         4.76594702605406   -3.87872953566028   -2.63374892599073
C         5.51858515696146   -2.62443869545384   -2.92376964987700
O         6.54777178029194   -2.59638841004566   -3.58757840452140
H         4.20370897475031    0.60484030686874    1.12367078938755
H         4.15364720140468   -1.18831712607195    0.88926354027492
H         3.14397224037784   -0.46998370219615    2.08237521802219
H        -0.45916246464131   -2.44413196644954    0.28957918135954
H         0.94338911465462    3.42793978793622    0.20568780865341
H         2.20213114982291   -0.04555401685146   -2.12187719079470
H         3.51099553248968    2.00408754286195   -1.40747388385148
H         5.64187719589026    1.80899966118897   -2.63023425036327
H         5.08012796046104   -4.81040594004493   -3.12976286147044
