26
 energy: -46.151500683300 gnorm: 0.224349247440 xtb: 6.4.1 (79825abcba525fcdf90b791dcacef51065a7a4e7)
C         3.80641693128612   -0.27865847695004    0.64485377068750
C         2.51836675684652    0.05926735909222   -0.13779019197113
C         1.43915860468871   -0.91116415608965    0.31386217684356
C         0.75836249653048   -1.90563358408307    0.81144028527994
C         2.01297529750951    1.43046271756573    0.14742882369360
C         1.39749732241461    2.41975917132513    0.42885109941257
C         2.81844936177791   -0.00757788645809   -1.69900215107066
N         3.63830602919827    1.12929291909629   -2.15297097333026
C         4.95819177409286    0.92106941083607   -2.42289315819824
N         5.51776384026249   -0.23181556998272   -2.55276185752560
C         4.82029603618536   -1.37274975087774   -2.20898074637971
C         3.49242086961380   -1.35280777031444   -1.99054859646122
S         2.54318196792756   -2.79325383227957   -1.75052287150089
N         3.54026074310271   -4.06062482110537   -2.14392434621668
C         4.77859922790604   -3.86264213390661   -2.45116156705776
C         5.61154049179777   -2.63591941682753   -2.29247343098770
O         6.82884886684810   -2.73513702399782   -2.19776242369290
H         4.52078200414844    0.50895339081015    0.37309643184516
H         4.24361648673945   -1.27055227888091    0.48587855460549
H         3.56219367485925   -0.24313748755193    1.71271760011382
H         0.14562472623861   -2.69109752835619    1.19126977168639
H         1.07581199672670    3.39735698296646    0.71675260424509
H         1.89150560765438    0.02098438105929   -2.28994905072247
H         3.28535159627037    1.96670483262413   -1.69927351782092
H         5.58240114140885    1.82357805356683   -2.54305251376943
H         5.37853338289224   -4.69050122960218   -2.86041544954058
