26
 energy: -46.151615002537 gnorm: 0.226106119405 xtb: 6.4.1 (79825abcba525fcdf90b791dcacef51065a7a4e7)
C         3.78579179487838   -0.34410576979794    0.91986092004587
C         2.54273538106766   -0.02684102129390    0.05965598426594
C         1.35234584945144   -0.95080726411603    0.25884582890700
C         0.20151827423296   -1.54201481972365    0.42042024514220
C         1.92723038267037    1.29263949995703    0.37121960248499
C         1.40176728374923    2.29565876233850    0.76436080520706
C         2.88152487467133   -0.08324275270064   -1.49403033495350
N         3.72811859374336    1.06395129114696   -1.86545029106927
C         4.99431526152842    0.91234321775527   -2.34719128716463
N         5.63053851857828   -0.19341746271972   -2.52507845973631
C         4.94190310700419   -1.34795095484559   -2.21010022201997
C         3.66045448852396   -1.36739484562236   -1.79915724674216
S         2.67106044681770   -2.80077880020681   -1.79131002800514
N         3.62110328459511   -4.09787907562541   -2.20375336946649
C         4.82096432924284   -3.86623715227344   -2.62058613053795
C         5.63170935767386   -2.61490819076816   -2.59431778800140
O         6.81829206069106   -2.58870550245950   -2.89761451617276
H         4.63508186334407    0.07920215947708    0.36848197524614
H         3.98318477860398   -1.39748344366809    1.14724027607540
H         3.75697857707463    0.17272955437029    1.88593076360815
H        -0.74984964802613   -2.01475587979226    0.33049473992045
H         0.82276226544314    3.05461248401041    1.24478629026810
H         1.91652678533653   -0.04042961320149   -2.01958194060210
H         3.28872230551003    1.97944135649778   -1.88749037540473
H         5.51192364001338    1.87517438678421   -2.50092861278360
H         5.35590649697270   -4.74759186957662   -3.00764058568895
