26
 energy: -46.153444034234 gnorm: 0.228422495481 xtb: 6.4.1 (79825abcba525fcdf90b791dcacef51065a7a4e7)
C         3.69257945910254   -0.20627461603830    0.98929251734821
C         2.49478142559500    0.00930169331456    0.03818504588927
C         1.42398227470060   -1.02003025483261    0.36111282373493
C         0.43714261961395   -1.81709953190825    0.66255075043168
C         1.91042968526731    1.35946326627265    0.26740961132832
C         1.57497010989447    2.51001095652920    0.28804931283317
C         2.80830109014859   -0.06455519151616   -1.52006757101948
N         3.70259236701275    1.03007695188219   -1.93570137650666
C         5.04953268330598    0.90481388626072   -2.10414823941963
N         5.60222625471704   -0.24656439853055   -2.27144565754302
C         4.79340252182313   -1.36371672324540   -2.20700604128553
C         3.49191129325310   -1.39206704383608   -1.86542208102411
S         2.68193557525778   -2.92023077330331   -1.65997949512880
N         3.59137820449909   -4.05286291575744   -2.46323447529822
C         4.81155592520698   -3.82566339985141   -2.81907260334914
C         5.58339331056334   -2.56950844880887   -2.59510050970454
O         6.79487277808797   -2.53935536354593   -2.77415997711926
H         4.02192453015504   -1.25196755520946    0.93869545429371
H         3.29630362886209    0.12970481717419    1.95384069091622
H         4.50744027236585    0.43384924693778    0.63224463083879
H        -0.27252431236503   -2.54586333005395    0.98184339918475
H         1.19311570165137    3.50411388209160    0.19853511195666
H         1.90601705848347   -0.00633840591128   -2.14596939904660
H         3.30848928268608    1.96587564897678   -1.96100908496714
H         5.71599709347248    1.76718168052901   -2.27948915225784
H         5.35460540138028   -4.63146854961732   -3.33727694663201
