26
 energy: -46.150360188058 gnorm: 0.228725699227 xtb: 6.4.1 (79825abcba525fcdf90b791dcacef51065a7a4e7)
C         3.85489239606085   -0.17641340969379    0.83790582502156
C         2.58171793905910    0.07009597957382   -0.00117617585756
C         1.51863869827174   -0.97146573598592    0.30773990719483
C         0.65182525754309   -1.94529558375681    0.32581330275059
C         2.00451548803545    1.38714581669059    0.38504158553705
C         1.57246089160380    2.48945267087766    0.57203762452555
C         2.84044077255042   -0.08376710582320   -1.56363873830639
N         3.59583743205051    1.08033087104476   -2.05859293228354
C         4.95072754058206    0.93051397444834   -2.07047092385485
N         5.53511866866962   -0.20847139983511   -2.21305382640329
C         4.76937184902237   -1.35709779110684   -2.23887659484173
C         3.44370702392809   -1.41845941296085   -2.01480014145994
S         2.50348908521867   -2.88400535809875   -1.97336360712686
N         3.56138266119628   -4.12436517001516   -2.28565953066822
C         4.82574044575490   -3.87836520613228   -2.37486416442748
C         5.57866922266021   -2.59342794883496   -2.45138995945893
O         6.79237185534841   -2.55366189416227   -2.61263068989719
H         4.04009314430395   -1.25740598833709    0.79719110693153
H         3.79296044158994    0.15640777714042    1.87985801856566
H         4.67902820135580    0.39435864851611    0.39489417001168
H        -0.05657195894801   -2.66833591154387    0.66056349796942
H         1.22655388959012    3.46858036000891    0.82447278933501
H         1.85265102533041    0.09982749584290   -2.01065462134921
H         3.10020643665988    1.96685495868454   -2.06868637394675
H         5.53535704201255    1.86530891472906   -2.01602625167829
H         5.45182780341900   -4.73719180357765   -2.66329424037527
