26
 energy: -46.150693675869 gnorm: 0.209747284407 xtb: 6.4.1 (79825abcba525fcdf90b791dcacef51065a7a4e7)
C         3.61207799439551   -0.45691737112857    1.07457899196147
C         2.46378064435189   -0.14473827026707    0.08981702833169
C         1.30544668509267   -1.12895360301292    0.09011748372101
C         0.05280017985373   -1.40401902621936    0.32517607191701
C         1.86905805138517    1.19749499768281    0.33813549369111
C         1.24328394368598    2.21976950679792    0.32915059871159
C         3.00943651192115   -0.02630126886666   -1.40019405385697
N         3.93094588865620    1.11431547345173   -1.54351817465436
C         5.10532106796776    0.97593646184113   -2.22175676439910
N         5.56550423127241   -0.12667373172084   -2.70301841510295
C         4.91909805097606   -1.32045876322542   -2.45119714768639
C         3.70771111046997   -1.30901889419397   -1.86487508267399
S         2.81320481557366   -2.73650831417961   -1.42251306084584
N         3.70854366396341   -4.02010296489843   -1.97560721991873
C         4.84585289387743   -3.83580700945207   -2.55839086445115
C         5.56781569865622   -2.58144623753077   -2.91779379066414
O         6.66704749186373   -2.73117217523444   -3.43733743482045
H         4.35150398512261   -1.15288478394513    0.65818911535142
H         3.25392673288105   -0.93892041321266    1.99091442930508
H         4.05784573523703    0.50843210570327    1.34034469849658
H        -0.86953670691334   -1.93747535582203    0.36246752445427
H         0.89128669037039    3.22838985369667    0.30001042364758
H         2.10842574389744    0.10604703799474   -2.01657242630105
H         3.65633626010965    1.98720947337382   -1.10269787137891
H         5.82868175335054    1.79887019549912   -2.35639274840047
H         5.24248625768240   -4.75129389640033   -3.02457339147210
