26
 energy: -46.145577528393 gnorm: 0.220223151293 xtb: 6.4.1 (79825abcba525fcdf90b791dcacef51065a7a4e7)
C         3.87747081655845   -0.01548759300403    0.71774647457342
C         2.48048996054316    0.06567825182561    0.06379289645948
C         1.60701284443477   -1.08274753341778    0.54188634050330
C         0.56849210294871   -1.86585698375566    0.63272138145501
C         1.99973037284745    1.46722170426785    0.21039868566993
C         1.81055699968435    2.62447142804190    0.45880480075966
C         2.73021249810145   -0.17473861862879   -1.48918456946478
N         3.49783032007143    0.94606824778807   -2.05952019490138
C         4.85825729296933    0.85998701081048   -2.07143118601718
N         5.51545217512299   -0.24542261911328   -1.99866444160574
C         4.76842868492606   -1.40660015169375   -1.99915943926570
C         3.43715691357603   -1.49332344663540   -1.82151572538990
S         2.52307842153944   -2.95898836950638   -2.04476118525478
N         3.59133609679452   -4.07137645657296   -2.65842095257099
C         4.84214967506631   -3.79084735909299   -2.81283234139605
C         5.60086857077546   -2.59985664762169   -2.33355323470356
O         6.81765128778780   -2.52532218789004   -2.21297781472454
H         4.48284269990545   -0.86543758196177    0.37772903817580
H         3.88650301514687   -0.15232861314499    1.80469764135168
H         4.46489593672889    0.89353412248759    0.54497164186105
H        -0.19060190279696   -2.59531580177093    0.46438320884573
H         1.51198626614378    3.63903648663871    0.61236082634528
H         1.75312345132057   -0.15941987951686   -1.99348715223078
H         3.01997952942054    1.84138911972122   -2.01785387894051
H         5.38589842478424    1.79692918689824   -2.32109426638498
H         5.39217452166491   -4.61358627763222   -3.29587866531274
