26
 energy: -46.148102193792 gnorm: 0.223584113146 xtb: 6.4.1 (79825abcba525fcdf90b791dcacef51065a7a4e7)
C         3.81686921330539   -0.24296339536632    0.94435570371623
C         2.58562447179826    0.02559982804175    0.05121021047046
C         1.32033542693362   -0.78349204034596    0.28537130521068
C         0.12889334371384   -1.25829977185081    0.52002029092584
C         2.18704957692170    1.43269033507326    0.33081974740511
C         1.70670954754060    2.51137398265434    0.53681527520459
C         2.83965217512609   -0.15927641321445   -1.50865880344290
N         3.57988187517227    0.89502225458342   -2.22367082345245
C         4.91965643852565    0.80321070123429   -2.45795303406475
N         5.64088420047190   -0.26289880310490   -2.40925392532770
C         4.92940169004583   -1.42282952412400   -2.17530742638079
C         3.63067760183817   -1.43392773437481   -1.82238345952073
S         2.57643765335346   -2.82008403061701   -1.79591523219689
N         3.61333048513358   -4.09238994040235   -2.04340453978940
C         4.88693118292903   -3.95431055047890   -2.20449273262304
C         5.61713998750108   -2.69740930213933   -2.53738319123110
O         6.71186783801942   -2.73928816847858   -3.08553562476944
H         3.48071964618421   -0.74386389251931    1.86120035841715
H         4.31008789792438    0.67631121067775    1.27892918437667
H         4.58397005355041   -0.82042643866233    0.41583642432282
H        -0.70942443284172   -1.86990646634120    0.76462647071045
H         1.25372967233531    3.46778407707883    0.68566141098472
H         1.83809920291732   -0.26566200968951   -1.95005716993790
H         3.13369048285864    1.80275573001917   -2.31646145511840
H         5.50674138924365    1.73581472652860   -2.52259398269103
H         5.53670066586830   -4.84015584638555   -2.28090048263535
