26
 energy: -46.145011118059 gnorm: 0.220641020806 xtb: 6.4.1 (79825abcba525fcdf90b791dcacef51065a7a4e7)
C         3.85965432938187    0.15220647532722    0.82789284261671
C         2.57325561836551    0.09762901713261   -0.02533535742630
C         1.55519245349506   -0.93238647833597    0.43621953741899
C         0.47632584244041   -1.66075966890906    0.51075883932010
C         1.75114973938400    1.32405568908676    0.16693189758869
C         1.41685819978109    2.36939952075442    0.64882874296391
C         2.94463693183177   -0.06274324362825   -1.56424968215663
N         3.81056207766407    1.02510763398758   -2.05157092488438
C         5.10995438428415    0.80646066070804   -2.40097975552732
N         5.64825466513509   -0.35488147858367   -2.54467317764071
C         4.89141607498488   -1.48783561307213   -2.32109349891539
C         3.59436963572386   -1.38835476185820   -1.97593145288916
S         2.47542901348983   -2.71869189302222   -1.86764153341879
N         3.41239995837805   -4.05449876320610   -2.17237991605237
C         4.68563677456731   -3.98502387017492   -2.37514901073991
C         5.59049627014664   -2.80147945972027   -2.44052190518527
O         6.80295528778094   -2.96393952060295   -2.50535899249106
H         3.78634801744710   -0.33553811325863    1.80831793461025
H         4.00539468075544    1.22726115974546    0.98049385342463
H         4.77406391818986   -0.24508039348255    0.37263671328907
H        -0.19784667266186   -2.43843983736174    0.78892535024210
H         0.87927486528473    3.25355092237083    0.91593672816807
H         2.06514934047298   -0.01102308857095   -2.22234190540086
H         3.52595650809279    1.94806656342194   -1.73720901672565
H         5.64764624683564    1.72086429110895   -2.70651358118441
H         5.12401913653915   -4.98868555437846   -2.26006409286290
