26
 energy: -46.154708703516 gnorm: 0.221501727024 xtb: 6.4.1 (79825abcba525fcdf90b791dcacef51065a7a4e7)
C         3.85356382647283   -0.01061019675866    0.80553174365241
C         2.52200666160912    0.04741608718743    0.02489919993865
C         1.55589735542372   -1.01457383074573    0.52412625472127
C         0.70853692613883   -1.62672610770076    1.30341224688082
C         1.82937897688966    1.35319000813799    0.20425495383967
C         1.05117829557693    2.25526539444016    0.33609883317227
C         2.92107079480391   -0.09555200059365   -1.50879195973293
N         3.76188589239113    1.04609697703779   -1.90928598352653
C         5.09194160545372    0.84816601206518   -2.13309065106160
N         5.69915033101268   -0.27772325576584   -2.28409223755169
C         4.91960384237659   -1.40959022058306   -2.15157039884145
C         3.59229235788453   -1.40776073832010   -1.92885171299421
S         2.49696260535054   -2.74648000810039   -2.13289862702657
N         3.47523068000745   -4.02243186853909   -2.54532856179023
C         4.75750210852684   -3.91295186340867   -2.64957907803705
C         5.60091903041382   -2.69299709940110   -2.49407999206439
O         6.80025213673249   -2.82108478778065   -2.70820060621806
H         4.41593366259087    0.92578203063062    0.69870606543278
H         4.42905187180639   -0.89588508882678    0.51334727268314
H         3.54927127525976   -0.18455469661168    1.84398696846845
H        -0.00796230471662   -2.25446562879395    1.78220611864123
H         0.58504596296501    3.21373241726245    0.41437924694637
H         1.99126837175546   -0.01703578196172   -2.09065227200041
H         3.41194982487493    1.96444274611328   -1.65264865142096
H         5.70376391781288    1.72654569048425   -2.40275721840814
H         5.27737777377306   -4.85825603159255   -2.87068930463166
