26
 energy: -46.151819291342 gnorm: 0.235576088260 xtb: 6.4.1 (79825abcba525fcdf90b791dcacef51065a7a4e7)
C         3.89275506910031   -0.24503188644648    0.79453562296327
C         2.62923345976289    0.09166145676058   -0.02762581226778
C         1.50245430673540   -0.83034016745792    0.40906536096651
C         0.53971952872868   -1.68426754085002    0.61879507338796
C         2.05273294528376    1.44240187554706    0.21751619806398
C         1.46187641932306    2.43145602920615    0.54824199920266
C         2.75514336150118   -0.08584274339707   -1.60386805069330
N         3.58376010324759    1.03471197499193   -2.08186313097924
C         4.92977839194969    0.84018308351795   -2.17517268069867
N         5.58287302441374   -0.26539797140533   -2.27660488652812
C         4.77708517494309   -1.38640906870172   -2.25616828522775
C         3.47140989970933   -1.40093159835660   -1.93003349117156
S         2.62350714236255   -2.90539723379597   -1.70376870788738
N         3.60162015832298   -4.06975107538945   -2.36915211817984
C         4.84937167401672   -3.92489982426652   -2.66782974666521
C         5.56740194247081   -2.62783636889473   -2.50695522047768
O         6.78732766442185   -2.54019078872060   -2.57590069556607
H         4.73873066048908    0.09980193270922    0.18632768361312
H         3.95827101383080   -1.31499909027355    1.02069426345907
H         3.89446578786710    0.33748790268672    1.72292544624471
H        -0.35121885255133   -2.24003426213582    0.80325042648924
H         0.93993522822194    3.35716121857294    0.66099616340834
H         1.72564236023314   -0.00207699687732   -1.98118720839460
H         3.09013320729773    1.91626753454257   -2.18611860561294
H         5.52712845286005    1.76024760303535   -2.29867022623949
H         5.38295329951139   -4.84214202400829   -2.96230860727351
