26
 energy: -46.152750516499 gnorm: 0.216755395790 xtb: 6.4.1 (79825abcba525fcdf90b791dcacef51065a7a4e7)
C         3.60930608677881   -0.42667622872853    1.00240740849639
C         2.44954534109973   -0.02058962616269    0.06654023252106
C         1.31679363439095   -1.01653736871329    0.25463352990926
C         0.15524311612108   -1.55967787998585    0.49092897647408
C         1.94771709249893    1.35898928785625    0.31529219267321
C         1.57303246942387    2.49689490635598    0.35403924717594
C         2.90737391573464   -0.08025985301720   -1.45619844828376
N         3.71412765342769    1.09296032632705   -1.83492089001814
C         4.93282926286884    0.91708397771238   -2.41985446633415
N         5.52606454485302   -0.18713433150363   -2.71634120031388
C         4.86195406482580   -1.36721422038325   -2.44662592885096
C         3.68463755562826   -1.35707262415120   -1.79456325115403
S         2.74514574587216   -2.81103085257962   -1.60243747264708
N         3.62210465929560   -4.02001857589224   -2.32662790138353
C         4.86201639132090   -3.87803304674478   -2.65758570423920
C         5.66011619854272   -2.61977785815844   -2.59715160808801
O         6.88003339520011   -2.55669318791998   -2.68921873478979
H         3.92134183290314   -1.42172788920563    0.66034330820924
H         3.21191591226474   -0.51371082763926    2.01964676798425
H         4.48497630905617    0.21988879901989    0.87436358578889
H        -0.57833202809327   -2.30205453965423    0.70868119132155
H         1.14354858489611    3.42738085006707    0.65703380531230
H         1.95701306119271   -0.10755665013855   -2.00876328302273
H         3.58827705963752    1.91054391322519   -1.24551811799245
H         5.48510717670901    1.82942645886096   -2.70484176523416
H         5.42344332711983   -4.79359076218328   -2.90113092835984
