26
 energy: -46.150409698596 gnorm: 0.205926521256 xtb: 6.4.1 (79825abcba525fcdf90b791dcacef51065a7a4e7)
C         3.82588025017543   -0.44086567376982    0.63835149311346
C         2.47743829160028   -0.10867484424095   -0.03777884343955
C         1.35875860877007   -1.08350188214909    0.29189589347443
C         0.15400082591897   -1.58189218164804    0.30612809856124
C         2.18211809065875    1.28852505979291    0.38360639273981
C         1.91026702397582    2.39871653227135    0.74456482401998
C         2.70957622955272   -0.11933894171909   -1.61191317579523
N         3.42303160768390    1.06538250407877   -2.11999230360674
C         4.77791050219452    0.93994927393471   -2.20295665956834
N         5.49817257369382   -0.12159950042266   -2.31900537866143
C         4.84345760146506   -1.33633934695212   -2.27282092206926
C         3.55145743559733   -1.36783382437609   -1.89717959400866
S         2.59533734246933   -2.82204957057498   -1.82904270778466
N         3.70285824461687   -4.02752720184816   -2.10359899812491
C         4.96078922370987   -3.84349772770557   -2.32902494093770
C         5.67615029237719   -2.54965277481072   -2.52407740268707
O         6.86681895315506   -2.49580746010229   -2.80703112043438
H         4.05115888833925   -1.51289851350338    0.70541179718732
H         3.80844536415474   -0.14263405798792    1.69240263817401
H         4.70879812043575    0.06547074967588    0.23175666585504
H        -0.62998593540006   -2.00435252832313    0.89227112003074
H         1.66216541997968    3.41160473171618    0.97816552818933
H         1.72789854960212   -0.17952858605201   -2.10379212872098
H         3.07706027143101    1.97104217009837   -1.81707097924053
H         5.34103351328351    1.88221138061434   -2.08620026756468
H         5.57571444361350   -4.74885949267181   -2.45128472461438
