26
 energy: -46.151731587545 gnorm: 0.228011348651 xtb: 6.4.1 (79825abcba525fcdf90b791dcacef51065a7a4e7)
C         3.82467447984066   -0.28012879988566    0.71419446699632
C         2.55133810166961    0.04585509258821   -0.09706853835011
C         1.45680508093138   -0.85356305300336    0.45380522674927
C         0.31624119846964   -1.35790673658218    0.83431573521051
C         1.95117761229251    1.39084308112573    0.12147625430497
C         1.40002792554902    2.39333731015110    0.47918906256415
C         2.78643590134862   -0.16863048460284   -1.65611491434576
N         3.60156508361133    0.98857205069445   -2.06498481246143
C         4.95379085220673    0.85741188928244   -2.17721618222461
N         5.64508415937608   -0.22941695234887   -2.18408585990034
C         4.91828816397821   -1.40333238880420   -2.19231548146990
C         3.59808224211467   -1.43880975455442   -1.93316220640837
S         2.59206816507273   -2.86035219947506   -1.90662066445016
N         3.64254775673300   -4.13095938299899   -2.09951970150792
C         4.88306592465397   -3.90257373305891   -2.37525276247706
C         5.69213426547019   -2.65247802599573   -2.45581844831156
O         6.84687804408781   -2.54960120074461   -2.85159256759593
H         4.80188559051114    0.13802958061804    0.44087419828699
H         3.93442841335815   -1.37011773611831    0.70202554955204
H         3.70110442915276    0.10153602339172    1.73414657489736
H        -0.49751321149835   -1.95938703628575    1.17001923009613
H         0.83190333336570    3.26452070386446    0.72483138146923
H         1.84435775566930   -0.12071405901758   -2.22131536055088
H         3.18396795219256    1.91444911579949   -2.05856462956994
H         5.51474995318364    1.79062071779911   -2.35899524807203
H         5.47244099072989   -4.79043823446137   -2.65291094967588
