26
 energy: -46.153628304368 gnorm: 0.226558587278 xtb: 6.4.1 (79825abcba525fcdf90b791dcacef51065a7a4e7)
C         3.93075225718084   -0.07880808368593    0.77307428972089
C         2.56663805766695    0.04740473651771    0.05958885995362
C         1.67853993601964   -1.05521831238660    0.61269060568044
C         0.89758919973632   -2.07590945613787    0.83255939118289
C         1.95103707627137    1.36852201456526    0.36394336162404
C         1.40951873738913    2.43152288888749    0.48015918966495
C         2.78552943695610   -0.10252115459475   -1.50933096055898
N         3.56480111418457    1.02947415727593   -2.04041489776405
C         4.90032023181785    0.85893428381761   -2.25399915703600
N         5.59157799561847   -0.21500368006981   -2.08681508529369
C         4.87117413297151   -1.39288025705553   -2.08843890216290
C         3.53041647834160   -1.35776815561933   -1.97664093316780
S         2.42507891109755   -2.67111974545492   -2.27140891094976
N         3.43708288818770   -3.95304846373411   -2.56749460495595
C         4.72532134449165   -3.87963704814886   -2.52138061911574
C         5.58916104850357   -2.67905570727294   -2.33109898089856
O         6.79744134488755   -2.81601032807324   -2.47927504090064
H         4.46048633708107    0.87146224982627    0.62860956096893
H         4.59394008376236   -0.86173753694011    0.38905181498797
H         3.79092810039812   -0.15375972082993    1.85754252420924
H         0.32399636910936   -2.84791995339167    1.29262751037838
H         1.03039658975010    3.39263230059523    0.75329156047762
H         1.76787524924126    0.01380809199522   -1.90946371293977
H         3.13131571881520    1.92992481675488   -1.85887717051107
H         5.46312694495289    1.79065512054975   -2.43769005231010
H         5.28402496868833   -4.79679701728627   -2.76515974236205
