26
 energy: -46.149345989711 gnorm: 0.223753518176 xtb: 6.4.1 (79825abcba525fcdf90b791dcacef51065a7a4e7)
C         3.54732309303930   -0.60125706552096    0.93547808664522
C         2.44797254813991   -0.02789892774647    0.01434426235379
C         1.13197849739055   -0.74797526809702    0.25943030359229
C         0.19847437756654   -1.65599591750319    0.19535742931311
C         2.07674905954505    1.34858106222484    0.44381264432279
C         1.85713600311298    2.41801342891593    0.93858898824910
C         2.83491991556499   -0.03597672676184   -1.52906336736914
N         3.71250222424844    1.10585462488240   -1.84018767096994
C         4.91128711123034    0.92036332231296   -2.46213715944702
N         5.43668654510623   -0.20954991584274   -2.78829980046290
C         4.73207687357635   -1.37273717179765   -2.54976630575102
C         3.49087208331413   -1.32680044271385   -2.03143896277217
S         2.79011297172279   -2.84119618016453   -1.53234585964763
N         3.82685206522635   -4.07768213911687   -1.92149178418747
C         5.01369811262592   -3.87879830539383   -2.38937610579696
C         5.59839905873158   -2.56542457462370   -2.78560324264844
O         6.73867767385312   -2.44113274508745   -3.21568488058237
H         4.53769107351145   -0.45980181817446    0.48418700800443
H         3.35477236578141   -1.63579065119245    1.24032946790293
H         3.51116976770728   -0.03695690446787    1.87435942265756
H        -0.68694669445602   -2.21340473175261    0.40028807735943
H         1.62931799409433    3.37800830514693    1.34916784830441
H         1.95573802158284    0.07264407415793   -2.18059961678604
H         3.36811024487010    1.96082311958627   -1.41345595189916
H         5.45758548680007    1.87032372766754   -2.59529410021040
H         5.67585056541657   -4.75336379672275   -2.48658588060735
