26
 energy: -46.150392629936 gnorm: 0.215245004259 xtb: 6.4.1 (79825abcba525fcdf90b791dcacef51065a7a4e7)
C         3.75054085459466   -0.33162012221303    0.90612924539532
C         2.50137950433822   -0.00189097772437    0.05956364436691
C         1.36657165026143   -0.98531195144716    0.29517300896935
C         0.86030869762370   -2.14051952213205    0.62567273836971
C         1.99115995200724    1.35675369004392    0.39229148508228
C         1.56660478332859    2.47638914443273    0.33854694098274
C         2.84802385471969   -0.02099146620825   -1.49329614080607
N         3.65158999189272    1.10305881800200   -2.00468669616015
C         5.00178138757053    0.95743485097050   -2.12338907163476
N         5.60010236112598   -0.18311851821603   -2.14013975113713
C         4.84450509020204   -1.33869526110413   -2.14977091105236
C         3.52167034148746   -1.33558601670576   -1.90185697169218
S         2.51029767453749   -2.75208089693149   -1.96681304030579
N         3.48239999460998   -4.03232003592125   -2.38053378414374
C         4.75658911589210   -3.89539524779527   -2.53791149659662
C         5.52626679291645   -2.61856485912154   -2.50441330966534
O         6.72434695199590   -2.55379688330911   -2.75152268108338
H         4.31615902672920   -1.16113358286853    0.46286243600471
H         3.63205771263382   -0.54150878876579    1.97485670321990
H         4.34833597651669    0.58392538739890    0.83091413389636
H         0.12531757219030   -2.87218165530146    0.87291796609261
H         1.28337913847064    3.50421609860201    0.26491815918286
H         1.89736441959349    0.09885331264802   -2.03287249361900
H         3.35784866420764    2.06948182142533   -1.89782447778901
H         5.60772604607635    1.87988410221490   -2.10067548646089
H         5.29729075613638   -4.82717032677908   -2.76637888712844
