26
 energy: -46.155284400743 gnorm: 0.208335654828 xtb: 6.4.1 (79825abcba525fcdf90b791dcacef51065a7a4e7)
C         3.61478830887187   -0.23845437405209    1.01193459581832
C         2.47384106072987   -0.00123088517641   -0.00185191898832
C         1.36816594598562   -1.04140888452168    0.07515276956581
C         0.30943194057844   -1.63902472131888    0.54629435952031
C         1.97345411556457    1.38735375774848    0.19408873307723
C         1.35171622459804    2.38035477516270    0.44728844480606
C         2.93484070770144   -0.05259791602365   -1.52393647922193
N         3.74318754694865    1.07995301766807   -2.00832439127237
C         5.00731453318671    0.87945503408765   -2.47746926806148
N         5.63831824262118   -0.23870066462812   -2.58087483759463
C         4.95052240846340   -1.39565593166077   -2.27302908658399
C         3.67503431532168   -1.35554380183800   -1.84537981627549
S         2.69170842814583   -2.75786345859276   -1.52896000529326
N         3.67177638386394   -4.05043073386453   -1.88094959093213
C         4.85705064249275   -3.93986342915300   -2.38092345047572
C         5.62582718130830   -2.68314062623765   -2.61212060675135
O         6.73539612051206   -2.67127281364629   -3.13112920040197
H         4.26497070795798    0.63501780655170    0.87478080219824
H         4.15693798950684   -1.17579011945376    0.84536535274997
H         3.22608562379361   -0.24566452433990    2.03667755580195
H        -0.50923646073958   -2.31714598200743    0.46502173124350
H         0.95566250805840    3.32746908199743    0.74424324868505
H         2.01212118261614   -0.06443643513120   -2.12202284355307
H         3.34923092766249    2.01364315899008   -1.93978371535559
H         5.59891845973470    1.78149108384203   -2.71184763026981
H         5.37596957764935   -4.90022043475113   -2.52651867464447
