26
 energy: -46.152905485323 gnorm: 0.221947324481 xtb: 6.4.1 (79825abcba525fcdf90b791dcacef51065a7a4e7)
C         3.91739810808233    0.02379801034794    0.93449720034258
C         2.63172250898305    0.10201801711925    0.08201929599523
C         1.59137198091134   -0.95374129569690    0.41885825936253
C         0.55327473123980   -1.73187160934015    0.54887395101734
C         1.98706920878576    1.40201085604211    0.41576751664804
C         1.17973697234769    2.20508065607374    0.78995018820736
C         2.87690768041262   -0.04008474091663   -1.48373664720684
N         3.70781720795851    1.03779027953595   -2.04809705561580
C         5.01419124351800    0.85007613838390   -2.38936479802558
N         5.55839157021819   -0.31290299857467   -2.49161981075045
C         4.85630736219030   -1.45265285197368   -2.15335122833359
C         3.55197017156312   -1.37127868128212   -1.83172181887939
S         2.54001263762917   -2.78188822359135   -1.97198715903229
N         3.48594664454826   -3.97803436611971   -2.62742845042081
C         4.76539615650539   -3.86778039332715   -2.76132044270651
C         5.62650029154359   -2.71091102008719   -2.38188056566221
O         6.83845358564079   -2.83234375572870   -2.25120044283587
H         4.32081074842170   -0.99617728818147    0.97205503379554
H         3.72605681963654    0.34745377931862    1.96352846426416
H         4.73250760258224    0.64594279986784    0.54749297888445
H        -0.21209764253529   -2.47404075671227    0.55672962432233
H         0.51568413386967    3.00185470879241    1.04734316905526
H         1.85108503634247    0.00851601988063   -1.87690917099923
H         3.26923782656702    1.95351452099148   -2.07592079392146
H         5.53841876347446    1.74199421002419   -2.77441689441889
H         5.31653712891126   -4.64755788351704   -3.30991054979029
