26
 energy: -46.153056995031 gnorm: 0.218036105678 xtb: 6.4.1 (79825abcba525fcdf90b791dcacef51065a7a4e7)
C         3.63182303610412   -0.41117258318559    0.94337952953797
C         2.42847287166927   -0.08851719902596    0.03034032817752
C         1.24213432088800   -0.95055916729014    0.43021770268127
C         0.17613850263001   -1.40503062937680    1.02783410711032
C         2.08397925446845    1.35359701669182    0.16664100695009
C         1.77069876120857    2.48006119651073    0.43055936603093
C         2.78788516678125   -0.20163255947460   -1.51559898406839
N         3.53538976794592    0.98864427357867   -1.95742000357194
C         4.89445820039075    0.93218894094334   -2.04719298682576
N         5.59688716779916   -0.14742049167513   -2.03424764471386
C         4.90695927232402   -1.33658747135207   -2.16175841875003
C         3.59006907485640   -1.44747836077964   -1.90707003573454
S         2.65670535156130   -2.89125096554772   -2.18618386564244
N         3.74397660454055   -4.12686823813564   -2.40124480353438
C         4.99437419562958   -3.85174015154858   -2.56823121158622
C         5.70275896585386   -2.53966716799754   -2.54638619936241
O         6.86637178927716   -2.46360481170003   -2.92171767058741
H         3.52740864925873   -1.43795100574532    1.31664306807321
H         3.55323648240076    0.30778640422849    1.76629630483591
H         4.60022484665084   -0.29473957574163    0.44349835976661
H        -0.64066926611382   -1.92717037831585    1.47153082227295
H         1.65704896518292    3.54154343843695    0.47960408895431
H         1.81633624676356   -0.29338348028247   -2.02248480355718
H         2.95729123794771    1.81189411371629   -2.09791453454779
H         5.45798961967362    1.86373185498646   -2.22955964577827
H         5.67492438653009   -4.71125148412391   -2.67240472253225
