26
 energy: -46.152235734185 gnorm: 0.226738122281 xtb: 6.4.1 (79825abcba525fcdf90b791dcacef51065a7a4e7)
C         3.72379602048204   -0.10106602076501    0.93051706394974
C         2.51407802409331    0.12229535652919   -0.00355507421918
C         1.41563885097010   -0.84945082859624    0.39589226045970
C         0.49280129507445   -1.72305240272656    0.68783044300910
C         1.82078769257189    1.43701639183394    0.08478655537026
C         1.22041544142091    2.47278375411272    0.14359335373729
C         2.91986737715746   -0.09604066827399   -1.52656690236722
N         3.87161578247561    0.96407436413209   -1.90214509959258
C         5.22081070743217    0.79669422563280   -2.00199671146969
N         5.78789203624988   -0.35048616714060   -2.14871575874007
C         4.95159049847879   -1.44890008330031   -2.12717007862096
C         3.65624110695642   -1.41917619435637   -1.76309700131013
S         2.61218203720909   -2.80868043283944   -1.65009104580629
N         3.64032777548686   -4.08181713302651   -1.92793869412391
C         4.83089927973669   -3.94352548569363   -2.40803137104623
C         5.51695786442128   -2.67060723472852   -2.77248226824312
O         6.40194689192474   -2.69538121384673   -3.61914316213411
H         4.43687284141823    0.72611679609238    0.82192610912209
H         4.18015648542137   -1.05081304751742    0.63054106369929
H         3.50481963597697   -0.07711698987139    2.00416303966129
H        -0.48253223573790   -2.15317552327338    0.70758476846585
H         0.79125359682689    3.45115011936340    0.16977678833229
H         2.00152233113051    0.01417609698689   -2.12133862923164
H         3.46658590242774    1.89463480848378   -1.86109655382638
H         5.83931125495165    1.68435217861839   -2.22135461813099
H         5.37449589871337   -4.85498702766106   -2.70214187657220
