26
 energy: -46.155617849036 gnorm: 0.221228394077 xtb: 6.4.1 (79825abcba525fcdf90b791dcacef51065a7a4e7)
C         3.68970908529434   -0.42365783696125    0.93518853923484
C         2.51969766726459   -0.07976508503212   -0.01276175928508
C         1.36728201475894   -1.06062478248667    0.12961056438411
C         0.31749513735527   -1.70788379828872    0.55274182201574
C         1.93601532532267    1.27046102142445    0.21778441900100
C         1.64171976382517    2.38868778098332    0.53350290543209
C         2.90999687567935   -0.05565126554487   -1.55515785687082
N         3.72569416105107    1.13785448380674   -1.83960443115639
C         5.05537583817473    0.96691590180214   -2.08666725714230
N         5.62088676645518   -0.16429255392932   -2.33099363599444
C         4.90134765512370   -1.34246751552165   -2.30765203679636
C         3.60830135814841   -1.36597283739175   -1.93503758532887
S         2.59234985593823   -2.75685841512317   -1.67651957204013
N         3.59964944741709   -3.99467864678356   -2.13292798195081
C         4.79301900751887   -3.82211369200052   -2.59462537976252
C         5.62100054792500   -2.58717166016122   -2.70945763544361
O         6.76167585023379   -2.60669357449132   -3.15570055354012
H         4.35759682067317    0.42910769161430    1.11187721737680
H         4.17730014681060   -1.34114819703760    0.58771726386916
H         3.25899172289588   -0.77531748445497    1.87967673232545
H        -0.42666038763736   -2.44595265515120    0.74808396251564
H         1.16965568335941    3.30095949841714    0.82843007161427
H         1.96857766295997    0.13021786735067   -2.09222517679068
H         3.36399946802499    2.04131851171565   -1.54873225299102
H         5.63978105629539    1.88390955546043   -2.27690563278536
H         5.33013550733191   -4.73484510752324   -2.89659829635475
