26
 energy: -46.153358066114 gnorm: 0.227110984680 xtb: 6.4.1 (79825abcba525fcdf90b791dcacef51065a7a4e7)
C         3.82293015184743   -0.01982231426613    0.77505585120371
C         2.51426445435646    0.21587930214955   -0.01084333730951
C         1.66221031652744   -0.94748624353518    0.46978311545275
C         1.12109196036777   -2.00744620749082    1.00242986904579
C         1.73641123151824    1.48450784137359    0.03888702647460
C         0.94106583626233    2.37993075273134   -0.00971970969159
C         2.90699674105268    0.01384900357219   -1.53951784633689
N         3.88282868729799    1.06297784420856   -1.88275038506544
C         5.18951345751979    0.78773011143217   -2.15684342631458
N         5.72884291806609   -0.38163200664193   -2.18593866608729
C         4.86574429198134   -1.45631891379151   -2.10540036048263
C         3.54133068542674   -1.33404502153418   -1.89963242546668
S         2.41210570612797   -2.65731101647780   -1.98547973411830
N         3.35145707524213   -3.98490470754803   -2.31755506395533
C         4.63284708520497   -3.95476430674147   -2.47313545430405
C         5.52552268141529   -2.76237676271947   -2.40127500521308
O         6.72289616345602   -2.86864223551460   -2.63719530712335
H         3.69701508972193    0.29154224918917    1.81990008166088
H         4.67329746018188    0.53765353868089    0.36717596622022
H         4.10041398930818   -1.07809832552178    0.84058827671749
H         0.85938229879548   -2.85904099803909    1.58806285272989
H         0.33336721539420    3.25890320609064   -0.02298679375336
H         1.99069453155464    0.15498586712867   -2.13089709109114
H         3.51415689142725    2.00942261128814   -1.88217178507235
H         5.82068068819230    1.66968778623012   -2.36269785648324
H         5.09401121171092   -4.91525177356562   -2.75161684632034
