26
 energy: -46.154098758268 gnorm: 0.225090030246 xtb: 6.4.1 (79825abcba525fcdf90b791dcacef51065a7a4e7)
C         3.78044751961081    0.17652317714341    0.92269420958863
C         2.54457598698032    0.18478159911082   -0.00377870142493
C         1.46715781731791   -0.77870524386115    0.46662606365344
C         0.79822442337209   -1.84181348434352    0.81643424006119
C         1.84043044493559    1.49051125017211    0.12348589299001
C         1.12613552134319    2.43454317376916    0.31138375857271
C         2.89116240799521   -0.09552054206171   -1.53126330286609
N         3.79027886921103    0.98675062251386   -1.96830632640300
C         5.11835183946547    0.75099585469296   -2.16567724051472
N         5.70733729940368   -0.38604519299540   -2.30483309019790
C         4.88601368269655   -1.48219578138853   -2.13088190325635
C         3.57633701815511   -1.43470444300915   -1.82452530703713
S         2.51497555046719   -2.81259558819134   -1.91660971183472
N         3.49515840998069   -4.08392780085586   -2.33864762056775
C         4.76168908997297   -4.00024622105634   -2.57523057278060
C         5.57847663046934   -2.75563418715521   -2.48793391087965
O         6.74967119224480   -2.79490878017766   -2.84488601654579
H         3.97561861181206    1.16658150431492    1.35419706639697
H         4.73455002286207   -0.14879577215006    0.49359529196401
H         3.59309619119100   -0.46998434440064    1.78766091489271
H         0.06895262028619   -2.57669197563513    1.07096885818961
H         0.56616991256305    3.30351382259719    0.58229839479130
H         1.94365683027360   -0.10710822236235   -2.08925763527305
H         3.45584710844445    1.94557421144685   -1.99043431553446
H         5.68940358327232    1.66697809403960   -2.39692149483415
H         5.29321669568714   -4.87863274635668   -2.97357204764547
