26
 energy: -46.153774036439 gnorm: 0.224932094138 xtb: 6.4.1 (79825abcba525fcdf90b791dcacef51065a7a4e7)
C         3.53426694746633   -0.17876514527143    1.16650965273998
C         2.42097467249254    0.01031547270873    0.11264650935448
C         1.21385166115583   -0.88190968080249    0.35182373508355
C         0.07811975319203   -1.51222758958501    0.23846971805441
C         1.75912011702459    1.33961524294015    0.22154005925912
C         1.32012206406249    2.45472387848222    0.19846290105401
C         2.96413829742793   -0.11947904916714   -1.37732909241559
N         3.96009258461448    0.94559917035077   -1.58806905158268
C         5.16402018696622    0.86972287097384   -2.22298204905510
N         5.56252274338483   -0.23813487239671   -2.74545453350267
C         4.88976332140666   -1.40022772370205   -2.42403179830233
C         3.72358413448003   -1.39682197679258   -1.75218563887369
S         2.96571255300609   -2.88929586791153   -1.27082915732595
N         3.78510507940477   -4.14887475058730   -1.97596528216391
C         4.84270328424273   -3.93049787384179   -2.68368813669145
C         5.49871665306993   -2.63138124037490   -3.00890212483028
O         6.54075891679289   -2.60301759425511   -3.65232844101518
H         4.10398467404425    0.75594476998521    1.24550995339609
H         4.21113924332139   -1.00737037224335    0.93086763651590
H         3.05318994482023   -0.34658129141160    2.13689233844791
H        -0.85742694375025   -2.00751325025394    0.36541899287869
H         0.89009124052302    3.43151520572814    0.25340289960490
H         2.13425066167301   -0.00127104430190   -2.08906791250216
H         3.64961612321083    1.87361456513292   -1.31591336044966
H         5.74487864080968    1.79915320831165   -2.35474002043648
H         5.39181075230477   -4.81868840387424   -3.03348662774849
