26
 energy: -46.148343893272 gnorm: 0.219237562684 xtb: 6.4.1 (79825abcba525fcdf90b791dcacef51065a7a4e7)
C         3.80476527517299   -0.48972515749593    0.91533837081300
C         2.57727228230132   -0.05160051991985    0.08641952145135
C         1.42165763196318   -0.97794272830793    0.42827087924165
C         0.28403815498730   -1.57637470673891    0.20978088901410
C         2.06763517250512    1.32288164640267    0.34721816975492
C         1.62422428440771    2.43157047152568    0.45169300784565
C         2.79592072927290   -0.07940696862028   -1.48943590079036
N         3.56233061366024    1.05890112999235   -2.02571795767938
C         4.88980131672917    0.93728099908315   -2.31092573125937
N         5.55794695481998   -0.16011602146814   -2.40275027645034
C         4.83747289625907   -1.32909158013049   -2.25855984894436
C         3.54531720506183   -1.35700566400870   -1.88317041572867
S         2.66179073082537   -2.84423899002777   -1.68051377759492
N         3.77233268769992   -4.05593351219056   -1.91214489276033
C         5.01169631508125   -3.88383225215733   -2.23063039414108
C         5.59371426685718   -2.56582432282659   -2.61524955328428
O         6.64291535764922   -2.47886031247548   -3.24156283529119
H         4.49764935998172   -1.03030596841900    0.25792982529450
H         3.29224108709681   -1.14201989874084    1.63095029231244
H         4.38905914661566    0.35147527902129    1.30549525447035
H        -0.69303336796678   -1.99937087393015    0.26525264933291
H         1.21827766555904    3.36794297268084    0.76867895927938
H         1.82716448931827   -0.05330909489880   -2.00913679354133
H         3.13616138028245    1.98081399116149   -2.03726713802098
H         5.39399715195250    1.88835957160469   -2.55553474113288
H         5.60607944122802   -4.81090779021715   -2.23086068079224
