26
 energy: -46.153558131076 gnorm: 0.228957938928 xtb: 6.4.1 (79825abcba525fcdf90b791dcacef51065a7a4e7)
C         3.52144949217790   -0.43982420670634    1.01208007650056
C         2.43901232811282    0.02280594389850    0.01202916587196
C         1.23495757857470   -0.81422652852999    0.41208694273937
C         0.23581874654186   -1.64387211143393    0.52804624793964
C         2.03447165656958    1.43713285100378    0.24218860281029
C         1.69073551931835    2.58531287256426    0.22646562749824
C         2.86901064223091   -0.09622874961639   -1.51533222483123
N         3.70546427262991    1.06001853702882   -1.88161819678521
C         4.99473421377190    0.90370515228999   -2.29593998084296
N         5.60157041391203   -0.20104193150929   -2.56129685162423
C         4.86850864789227   -1.34929915104040   -2.33656721364883
C         3.62090010745417   -1.39322679462187   -1.83366956580049
S         2.73380718852003   -2.87169013791765   -1.58716601612268
N         3.75392214955299   -4.10928376252608   -2.01481951467386
C         4.98163793459507   -3.92743406279140   -2.37079521804105
C         5.57708885460057   -2.60581430232183   -2.72091107800047
O         6.62718312689615   -2.56242240617496   -3.35025451759439
H         4.14604058881386    0.43788416388685    1.22187984113774
H         4.10797915015826   -1.27406945301896    0.61172059301580
H         3.16224256875192   -0.82611352247669    1.97280420175648
H        -0.56421716708519   -2.29695977183926    0.79279266986588
H         1.39328633148533    3.61175485470238    0.22911942967616
H         1.94602968001340   -0.04988050265736   -2.11133285392424
H         3.39060232422734    1.91009295237636   -1.42345625405119
H         5.56535030728459    1.84857743217196   -2.31046956457384
H         5.57301917221887   -4.82321164910871   -2.61698855565333
