26
 energy: -46.147559883092 gnorm: 0.227130941911 xtb: 6.4.1 (79825abcba525fcdf90b791dcacef51065a7a4e7)
C         3.81215422559969    0.02911713122514    1.06211142336785
C         2.61063683392272    0.04058840078145    0.09153269720066
C         1.57078776003082   -1.04695955144320    0.30687149418587
C         0.70775732863880   -2.00025585313587    0.52237417334643
C         1.76199213347293    1.22361912279352    0.40328199891299
C         0.95078337445637    2.09345935321566    0.55173213183290
C         3.01220129486785    0.04345085747017   -1.44815507237235
N         3.92530997752971    1.11901730318374   -1.87255727671232
C         5.15697946617064    0.86378956577109   -2.39806890014333
N         5.68594148291584   -0.29535385136283   -2.58705642697042
C         4.89944081938904   -1.38670036979071   -2.27599841044632
C         3.60163895649718   -1.28512063404425   -1.93430463816048
S         2.47987350533890   -2.61462115097071   -2.02161073667032
N         3.46586774090467   -3.94012418861621   -2.18290889114279
C         4.74644079846268   -3.90395268669311   -2.34383847060297
C         5.59173386040062   -2.68746986666713   -2.51550936080325
O         6.76595350523000   -2.88394574817781   -2.80405649485375
H         4.00013169284270   -1.02001149265272    1.32382799765141
H         3.56910922826276    0.72264693947670    1.87464783733137
H         4.71936656444312    0.42380640638770    0.59049076587539
H        -0.09998866110356   -2.66361390407309    0.73255062290872
H         0.27015183299737    2.87761212895552    0.80453905623559
H         2.06125921018734    0.21666187392323   -1.97252694850911
H         3.46083769008324    2.02229402816777   -1.86676284227280
H         5.81600889440693    1.66747048033591   -2.77005634386324
H         5.28376855295142   -4.86388585494754   -2.39451006740212
