26
 energy: -46.145870922065 gnorm: 0.221569285616 xtb: 6.4.1 (79825abcba525fcdf90b791dcacef51065a7a4e7)
C         3.93458809102889   -0.23033869753786    0.60634870660752
C         2.64255297064428    0.04864977575220   -0.19278168461105
C         1.59113851544138   -1.02251188797985    0.04713036648261
C         0.84823288157665   -1.91520300703685    0.63977745093647
C         1.95420916587081    1.29505879024873    0.24264284022081
C         1.17337143038798    2.09568787256084    0.67392537041737
C         2.86176790516089    0.06696278425746   -1.76869732453001
N         3.76771337771124    1.18933958180309   -2.06913201161559
C         5.02407211614952    0.89029277845734   -2.50553449001848
N         5.58078137066506   -0.27120968862566   -2.51636859838908
C         4.79090180872642   -1.39311535732799   -2.36211057152196
C         3.47024487467904   -1.29450467745806   -2.12231080108109
S         2.43688156499966   -2.66820272027443   -1.84183682415338
N         3.47222130662405   -3.96497630388054   -1.88196056636864
C         4.75149967289586   -3.88187536307708   -2.03563276336148
C         5.57639901617944   -2.65705587449611   -2.24343068676593
O         6.79712814662876   -2.71899929681080   -2.32490083370300
H         4.76096214289562    0.31864939255952    0.13707270418287
H         4.13097337148253   -1.30798640783967    0.58690328898379
H         3.94532301683007    0.16477538643597    1.62860577651303
H        -0.00819454559567   -2.47229772892215    0.94448906383059
H         0.49167511477703    2.84268538934641    1.01939758871700
H         1.86532965214731    0.10433762556505   -2.23234880458229
H         3.47861345392216    2.16173369529316   -2.01865587400606
H         5.57940609791937    1.83010321822380   -2.66972328992310
H         5.36451331504616   -4.78852223042406   -1.91329659251682
