26
 energy: -46.153359540138 gnorm: 0.218770770002 xtb: 6.4.1 (79825abcba525fcdf90b791dcacef51065a7a4e7)
C         3.85502724231933   -0.04187414404045    1.02821817222814
C         2.60177230824413    0.07237010261939    0.13261836011409
C         1.48013347262878   -0.85930477132678    0.56195006223709
C         0.58643273915192   -1.78681695516949    0.35932495798780
C         2.01319912667959    1.43327477275193    0.26851257347064
C         1.69313680406131    2.54250655231790    0.59082312478829
C         2.80769373694773   -0.17184473987820   -1.42618121497283
N         3.48739148703218    0.95092391933315   -2.09560588424225
C         4.82547703186716    0.85925191260909   -2.33940234728207
N         5.53432527960139   -0.21612872822367   -2.32452948541855
C         4.82801763108427   -1.39799957495360   -2.22114472626883
C         3.53116832206938   -1.44971083582118   -1.86495578567512
S         2.53983790447609   -2.87807287141913   -1.96790042109801
N         3.58066507004410   -4.07490199054160   -2.45722536253293
C         4.86057799212070   -3.93668843072993   -2.55618991924588
C         5.60419993975741   -2.64618943599072   -2.48229511512304
O         6.82687383588592   -2.65307749723612   -2.55762833363012
H         4.59733581242113    0.73483666458921    0.80416400860591
H         4.31191418416588   -1.02573177663756    0.87476338756077
H         3.63097985349362    0.13494708089921    2.08641329515005
H        -0.19625871384984   -2.50019400257246    0.48244649876882
H         1.24305680892435    3.50575370065943    0.69875432317618
H         1.83443624711283   -0.16930604667232   -1.93806223939215
H         2.95079493902011    1.81320695047357   -2.11006417432703
H         5.41571759648654    1.78906872053129   -2.41459702376430
H         5.43710810111692   -4.82994948768098   -2.84334515272115
