26
 energy: -46.149160362154 gnorm: 0.224730071705 xtb: 6.4.1 (79825abcba525fcdf90b791dcacef51065a7a4e7)
C         3.83414696934346   -0.17591513354853    0.89194809297849
C         2.61745912839175    0.09825800783974   -0.01925905967360
C         1.59784721172401   -0.97959446335007    0.31095759339401
C         0.51812349387728   -1.59174478634227    0.71033892870374
C         1.87257889506107    1.33217903224901    0.35429074263786
C         1.25470723494494    2.33359031047923    0.58260885867839
C         2.88967437539623   -0.02104066655934   -1.58245044572888
N         3.74745089774625    1.07103446594483   -2.07470973526369
C         5.00384863159796    0.86329403190060   -2.56114784339235
N         5.53318380471151   -0.30821607503114   -2.64176356423134
C         4.86800391655714   -1.44328163531852   -2.22278924027938
C         3.56598324279700   -1.36103696910156   -1.89212216479014
S         2.57528417059497   -2.78100250828869   -1.70300603326583
N         3.50529069605295   -3.94596539096984   -2.43314942361655
C         4.76323060339035   -3.89072293170173   -2.71882321789651
C         5.62773873299870   -2.71344241383155   -2.41806090216568
O         6.84275914695465   -2.76860144947437   -2.27198947116084
H         4.27647504308505    0.78076215332549    1.19791607262075
H         4.56725895759368   -0.86012194258928    0.45072508804412
H         3.48765301990537   -0.65176597733216    1.81647381621737
H        -0.18032822866397   -2.36715688296237    0.92845106393034
H         0.64895083469793    3.12139959984848    0.97565072457448
H         1.96031203512243   -0.02317831666439   -2.17027680654052
H         3.37210235083227    1.99192050471454   -1.86792653657084
H         5.52186994963287    1.75020647569860   -2.96566939110285
H         5.40161347297432   -4.65536975029956   -3.18844324019422
