26
 energy: -46.153759915069 gnorm: 0.222002765901 xtb: 6.4.1 (79825abcba525fcdf90b791dcacef51065a7a4e7)
C         3.67667104515476   -0.13165799929479    0.96626504874897
C         2.48305099138636    0.07783620999417    0.00856884613906
C         1.49632722695938   -1.03739638879585    0.31360959494587
C         0.85098449423762   -2.12829742486161    0.61939453044488
C         1.92020752086704    1.44086840810966    0.21423251225229
C         1.38974690824192    2.51563128622887    0.22890836229762
C         2.86311515388257   -0.01568399772398   -1.53373651117092
N         3.74626631566979    1.08692578728725   -1.95209467395134
C         5.07645677913355    0.88464856344614   -2.17116234641574
N         5.65662084742602   -0.25653037191496   -2.31346781452279
C         4.83610899145778   -1.36635408259488   -2.27566282497715
C         3.55575794029286   -1.34296938990826   -1.86151662603701
S         2.58240366641845   -2.77434875334123   -1.66842010230416
N         3.45979891819384   -4.02511135136587   -2.31721168717214
C         4.68888535752251   -3.88731442085142   -2.68793070047179
C         5.52397888061678   -2.65696512891898   -2.57532022881529
O         6.71445121831439   -2.70763813148089   -2.85968240963651
H         4.66076407614833    0.12064727786102    0.55104835049641
H         3.70794338315340   -1.11528808481413    1.44768355315286
H         3.53888362440071    0.56284953628240    1.80287356193850
H         0.27012992605007   -3.01279448377317    0.74956571113764
H         1.09352051918997    3.52863436332591    0.39666081996997
H         1.94819943047904   -0.01808081117298   -2.14380391181833
H         3.38604248407107    2.00165434647981   -1.69677649008857
H         5.59671941027032    1.85628689895017   -2.23315584867345
H         5.19734804508043   -4.79903072702067   -3.03864351865612
