26
 energy: -46.155188627157 gnorm: 0.222177951027 xtb: 6.4.1 (79825abcba525fcdf90b791dcacef51065a7a4e7)
C         3.58222480515665   -0.57701344250919    0.88693300958088
C         2.48338454553867   -0.08979241937322   -0.08310021834374
C         1.19172559202078   -0.83051642694118    0.22245263947352
C         0.06713596131620   -1.11390724402610    0.81829203737395
C         2.28051084037246    1.33816457727135    0.28666757189274
C         2.23612515085205    2.47587164832010    0.66132961843949
C         2.68651721070600   -0.21526248492385   -1.65628012918162
N         3.41877652922586    0.92255692758125   -2.23928198407322
C         4.78166977650766    0.93981023653413   -2.26247082304817
N         5.48755936916231   -0.13599241563555   -2.32162400668030
C         4.81144342355936   -1.33962405621700   -2.34433317111186
C         3.51398762450773   -1.45687976883033   -2.00636527447535
S         2.64998318257974   -2.96318318694759   -1.87183629787556
N         3.87026959675037   -4.08771824125666   -1.91033312786411
C         5.09662683038128   -3.83595390349230   -2.22614432229908
C         5.69720412830582   -2.51784143560788   -2.58069774210161
O         6.83033266367567   -2.42141270764179   -3.03608243109531
H         3.06970240349036   -0.88485026633458    1.80729122317150
H         4.34845715024756    0.17499763129997    1.10519254946306
H         4.10422287990162   -1.41099975528323    0.40399953656615
H        -0.85791056700325   -1.54321668128243    1.12918423906526
H         2.15031519779345    3.52782524913244    0.82894968027191
H         1.68394503329759   -0.32240539943289   -2.09517441479866
H         2.94833690009437    1.82050429857572   -2.17561094591471
H         5.25666547688213    1.92029023333347   -2.44033458884539
H         5.79002914830441   -4.69095031603709   -2.19557033878536
