26
 energy: -46.152025004333 gnorm: 0.218705936087 xtb: 6.4.1 (79825abcba525fcdf90b791dcacef51065a7a4e7)
C         3.67030134369516   -0.19872465199766    0.89319365453858
C         2.47074036614813    0.02438922273953   -0.05394538617467
C         1.44277046507905   -1.02424888134909    0.33855104562582
C         0.41398108813785   -1.66954434771748    0.81312764596333
C         1.97520802360406    1.40201212788260    0.21725556856478
C         1.70046156978463    2.56423445602227    0.31959205597400
C         2.75719513717618   -0.11360436851011   -1.61304835809084
N         3.54824985419434    1.02371095299582   -2.11452037630343
C         4.90175990173389    0.87322750022610   -2.05386818237128
N         5.58733991722371   -0.21709983529797   -2.07109925278689
C         4.85622126309349   -1.38321382992648   -2.18074082604584
C         3.53398417504913   -1.39619412655520   -1.92997528569037
S         2.60039114910884   -2.86563167659635   -1.98202395219813
N         3.65597572156056   -4.09826532140956   -2.33061473772090
C         4.90871516395877   -3.92377927248235   -2.58998429634215
C         5.62347110457964   -2.61657943750766   -2.52537598488697
O         6.81936419617441   -2.56719226987981   -2.78624878588994
H         4.50020321701180   -0.80984523339106    0.51597160452926
H         3.36639107540233   -0.67476445608813    1.83196654664873
H         4.12803384648506    0.77204518259583    1.11528999020892
H        -0.06962272039575   -2.50974084839386    1.25682667383376
H         1.49448914544890    3.55656020787430    0.65860705621279
H         1.82625264473032   -0.18989873968048   -2.19337930999294
H         3.27319353807252    1.92028354575020   -1.72441969843573
H         5.40804621968203    1.85234367583097   -1.99384200877511
H         5.47750852721793   -4.84006379308928   -2.81282324399970
