26
 energy: -46.148296830228 gnorm: 0.230732101275 xtb: 6.4.1 (79825abcba525fcdf90b791dcacef51065a7a4e7)
C         3.77333701460927    0.01939846434088    0.88435226243131
C         2.50086424287886    0.10908072782974    0.01339369498288
C         1.45251659079238   -0.92650932409860    0.38613739047309
C         0.61872262953319   -1.89679227243479    0.63788207153955
C         1.86461837455935    1.43209306461980    0.26194281473447
C         1.49914615635715    2.54382941696244    0.52115593409324
C         2.82607950953104   -0.12751669104971   -1.52613782906616
N         3.61434608976502    0.97526284735192   -2.10340809454321
C         4.91864224538484    0.85963223994539   -2.48255779211262
N         5.55409458620669   -0.25873676730543   -2.55024566229748
C         4.85533333360555   -1.36524821718850   -2.11008350246487
C         3.54118547837902   -1.44817554109527   -1.83169308412322
S         2.56433914248495   -2.88889602832811   -1.89208687859405
N         3.59323975743653   -4.09817962345921   -2.37598432727831
C         4.86435332237282   -3.89399651091813   -2.47423719336649
C         5.63044561498580   -2.62441842726928   -2.31582065653895
O         6.84607914868531   -2.72664931385816   -2.42734625322104
H         4.64342569637911    0.45969659515391    0.38077982368689
H         3.99311288002331   -1.03552756169382    1.08208829088650
H         3.58876880227766    0.55692194919486    1.82149844831249
H        -0.21911454394120   -2.54851182444561    0.73769247716421
H         1.30794229966413    3.55861125662745    0.79633788330867
H         1.87707506492676   -0.10379857827577   -2.08119348503456
H         3.14852937320152    1.87345564047943   -2.01429348199295
H         5.57485501791552    1.74108786784565   -2.58752555390874
H         5.50514538163779   -4.71616372207692   -2.82946533059198
