26
 energy: -46.155651514010 gnorm: 0.219310499078 xtb: 6.4.1 (79825abcba525fcdf90b791dcacef51065a7a4e7)
C         3.89823196324093   -0.07518118037761    0.64501217565644
C         2.55324092878852    0.10752041328880   -0.09215669622895
C         1.58533987420499   -0.93762271301952    0.43818359096697
C         0.57917027932786   -1.75166591979174    0.59627585675859
C         2.03887832657110    1.47933385548135    0.17337317066206
C         1.57427101572709    2.50750611194074    0.57799763856672
C         2.78326747681084   -0.06951207305936   -1.65665275658957
N         3.65831466935630    1.02046270897887   -2.12245879204676
C         4.98257919781222    0.83677541614734   -2.38872149972475
N         5.56091273349453   -0.31416237925383   -2.39047251417309
C         4.81078354454579   -1.45046523599212   -2.16134458043065
C         3.49393481456454   -1.40776720519702   -1.88666469597144
S         2.45474267134008   -2.80270635495404   -1.97484720454191
N         3.48047372270102   -4.08516237588934   -2.21638889814307
C         4.76624093279720   -3.96744099146543   -2.22067978661572
C         5.58782208121309   -2.72300923540980   -2.23536689335386
O         6.81008778488227   -2.72313890168669   -2.31734569190687
H         4.08009186418371    0.69943066275745    1.40092581467535
H         4.71164077263536    0.07133813616035   -0.07413182212634
H         3.92614321713946   -1.07861483228106    1.08499145409075
H        -0.12298017610929   -2.52488225956440    0.81026850421604
H         1.26410159563104    3.44811426990718    0.97939199124384
H         1.80827616178524    0.04682888963114   -2.15174413593712
H         3.18841242313177    1.91587616545894   -2.21787127615647
H         5.51688330916725    1.78589489601742   -2.56841230211512
H         5.36033341804243   -4.89386996167106   -2.25997215754978
