26
 energy: -46.144161878884 gnorm: 0.217288296861 xtb: 6.4.1 (79825abcba525fcdf90b791dcacef51065a7a4e7)
C         3.78675308236998   -0.27365661786317    0.78965666304117
C         2.55572551740821    0.08738109196797   -0.07058842889262
C         1.52322024496503   -1.01630278136095    0.09137527626326
C         0.34139501671602   -1.56460952408992    0.03955213911173
C         1.81278737301729    1.31295848531503    0.33308235647408
C         1.16871493636461    2.25975088227583    0.68730540365753
C         2.93854420473057   -0.00081146185209   -1.61252636065542
N         3.77747704510159    1.15150088916897   -1.98548188699086
C         5.07937565756564    0.91295375506960   -2.31177725949632
N         5.56197680420246   -0.23576386931197   -2.63838790317608
C         4.87339568992357   -1.40554969882586   -2.38573247313962
C         3.63060543616382   -1.34324008369660   -1.87294337993160
S         2.62807495616068   -2.71947437388414   -1.50625069119985
N         3.64840719576140   -4.00248367969557   -1.76695985973482
C         4.84840448651551   -3.95488439338167   -2.24110632457430
C         5.59374709383853   -2.70206974870213   -2.55533803079214
O         6.76540789098675   -2.79336800727665   -2.90106856084901
H         4.68358507302856    0.22513926804006    0.40055897717092
H         3.95630925171842   -1.35527170059306    0.74929071395634
H         3.61882564202041    0.07343893258508    1.81560254522156
H        -0.34895846284006   -2.37263969909542    0.12423359919769
H         0.50318875606214    3.06964132774290    0.89519618915696
H         2.09265292886260    0.20034493568448   -2.28577432623330
H         3.52149019008115    1.96064797161493   -1.42742395346281
H         5.64883310337067    1.82892465753968   -2.54696438396169
H         5.34180070409099   -4.85901216629416   -2.63081590292009
