26
 energy: -46.151639129816 gnorm: 0.228265466679 xtb: 6.4.1 (79825abcba525fcdf90b791dcacef51065a7a4e7)
C         3.90150646560152   -0.00935636851633    0.87427421744413
C         2.58704097237496    0.03357300121663    0.06425185171297
C         1.70694203092336   -1.16633559936654    0.37419158425765
C         1.03023287242886   -2.10881861459946    0.96902538157076
C         1.85490188519475    1.27781930043919    0.42862888773136
C         1.32370371048572    2.35194698022895    0.45686597305091
C         2.84091988630497   -0.03652860789643   -1.50499379485371
N         3.75693910533124    1.01231297049683   -1.98620894726926
C         5.10928744634232    0.84323893437838   -2.01589626484651
N         5.68703366363355   -0.30551881121228   -2.09136491449799
C         4.83659067863544   -1.39309276926379   -2.10889270253306
C         3.49629041996598   -1.32856894316480   -2.00499540252447
S         2.39348568321052   -2.65245074063038   -2.25937780603959
N         3.35378488612609   -3.90056397062299   -2.78397177769330
C         4.64251096800098   -3.86195476259984   -2.71491763582472
C         5.51246877587844   -2.68894087431578   -2.41320000206673
O         6.73293170274175   -2.70345822422363   -2.30873234377040
H         4.53054191035379    0.80726686475626    0.49752115794979
H         4.37179603868137   -0.99856921436341    0.85070411127363
H         3.69508626537023    0.29879703246189    1.90561900909002
H         0.32082406246247   -2.79080872254554    1.37926952705996
H         0.66136585352701    3.15801881774591    0.68843229627131
H         1.89776509123695    0.11016709142761   -2.05106903836191
H         3.31333966828012    1.92519468803272   -2.02549553258939
H         5.72087677912187    1.72131302008400   -2.28708227079080
H         5.11119234225930   -4.78442063954936   -3.09195196722073
