26
 energy: -46.151855196627 gnorm: 0.221381162132 xtb: 6.4.1 (79825abcba525fcdf90b791dcacef51065a7a4e7)
C         3.71568571752958   -0.48368273489761    0.92811170887661
C         2.54133051173502   -0.09756325943643    0.00204458850603
C         1.30426276655276   -0.93797561175215    0.27368393611015
C         0.03697378725186   -1.15613464477945    0.48914174087286
C         2.06038672882522    1.27302880068844    0.32933290096913
C         1.36436739970370    2.20269565626426    0.62597369302240
C         2.88010512862292   -0.10549013205008   -1.55264817180420
N         3.67529146992606    1.08883207129913   -1.88731373891489
C         4.89443534499716    0.91509955036105   -2.47196630079738
N         5.52554739092282   -0.17312046085703   -2.74874301551863
C         4.89879910071595   -1.35943557872930   -2.42282796837936
C         3.63525901376185   -1.37553122458647   -1.95961082402980
S         2.77576192647195   -2.81819885759214   -1.49752147633804
N         3.72787588497106   -4.03710414920936   -2.09994070575143
C         4.88829615825737   -3.87168092211202   -2.64135921616461
C         5.68993349138268   -2.61577721050168   -2.57886803407502
O         6.89058882995383   -2.61154269535723   -2.82189646250408
H         4.65360210268064   -0.10240974599233    0.50450136157459
H         3.83692473479772   -1.57072882229735    0.86564734555978
H         3.62844113659106   -0.20852912014571    1.98542848616621
H        -0.88896928374903   -1.58890349273798    0.79247685294657
H         0.99547613036897    3.19450472897575    0.77530624863925
H         1.93840099248263   -0.01304818034745   -2.11292182965002
H         3.25275891464350    1.97280042590633   -1.61946469457403
H         5.42142571722101    1.83982326467402   -2.76482233626870
H         5.43133747698477   -4.79395754421025   -2.90072838981604
