26
 energy: -46.147831985942 gnorm: 0.216604368034 xtb: 6.4.1 (79825abcba525fcdf90b791dcacef51065a7a4e7)
C         3.80118242458521   -0.12098971065945    0.92298988556473
C         2.50800669651304    0.06273487789141    0.09852611735721
C         1.50566374523019   -1.02017790991199    0.46325333321513
C         0.93279557801016   -1.99417546511756    1.11378204053615
C         1.93809196122301    1.43713822973488    0.15473776801672
C         1.54642765488924    2.56807366368779    0.22033673512482
C         2.75031658781340   -0.08766493021422   -1.46690240578062
N         3.67287303156622    0.97247756313632   -1.90929972947069
C         5.02583635614485    0.83825180330513   -2.00822945091122
N         5.61295868788491   -0.30365243914795   -2.11056534285844
C         4.76715099981884   -1.39468433737258   -2.13579149175046
C         3.43784286762278   -1.37819080634947   -1.92595679865001
S         2.51645684399957   -2.85296994411676   -2.02406892471603
N         3.52311766314272   -4.05675695595776   -2.56507802840440
C         4.77621426849303   -3.85361780364323   -2.80078428836190
C         5.53529260073650   -2.58464269355403   -2.60759020348140
O         6.75057192878428   -2.54951233754547   -2.75764355538784
H         4.67848586740817    0.29912794633196    0.41471654989832
H         4.09770935617032   -1.17087399428964    1.02341227502165
H         3.71374608263608    0.50402046121199    1.81906860289157
H         0.07195217140111   -2.60732962278995    1.25400415593102
H         1.01273263507346    3.49358403216393    0.19452219665726
H         1.75187627766488   -0.00511141564525   -1.92029035235321
H         3.25670504643112    1.88656483516691   -1.75788772453641
H         5.58679634505270    1.78575264024674   -1.92972139120042
H         5.31085059101549   -4.74596299364029   -3.16223203519466
