26
 energy: -46.151117245432 gnorm: 0.223848010599 xtb: 6.4.1 (79825abcba525fcdf90b791dcacef51065a7a4e7)
C         3.56550601667830   -0.28265672656179    0.94228834817362
C         2.40144275845621   -0.00650834645680   -0.03469552410570
C         1.22134518420666   -0.92668081257840    0.23189359420116
C         0.25853087234695   -1.67804896517291    0.68848011430932
C         1.89624990258318    1.35602569830942    0.28969352736668
C         1.43819922947056    2.45114954121632    0.45586344814165
C         2.89421171328593   -0.14425810329771   -1.54138207941249
N         3.74844430787349    1.02047151657973   -1.83193235356102
C         5.08120195153805    0.94289807117358   -2.10770909922169
N         5.70487592560754   -0.17084039903086   -2.28018502752853
C         5.01892233969784   -1.36739778809482   -2.21618752481564
C         3.73443241745710   -1.39637970516653   -1.81542772011383
S         2.70315128181145   -2.79913534316312   -1.76759948894767
N         3.73595287633992   -4.06416853951777   -2.06453703759547
C         4.98772647768229   -3.85857009138193   -2.30509095837844
C         5.64160596916357   -2.60357086532002   -2.77545278703552
O         6.54752557668594   -2.70450387574581   -3.59385133113101
H         4.24104199931303   -1.07721838934391    0.60049183498761
H         3.20457863413285   -0.70560346790566    1.88627847750304
H         4.20596865372604    0.57552968670108    1.17587683577702
H        -0.68068449006238   -2.16687411437554    0.81336444396464
H         1.14928888811950    3.46843388014523    0.60990755258355
H         2.04644653933468   -0.13996916278354   -2.24176381278718
H         3.30329512752819    1.92135422977609   -1.68384634887765
H         5.61567303713825    1.90036677983348   -2.23495604520899
H         5.53642668270321   -4.79690262707177   -2.48178433594111
