26
 energy: -46.154461959764 gnorm: 0.217026023852 xtb: 6.4.1 (79825abcba525fcdf90b791dcacef51065a7a4e7)
C         3.80512082285102   -0.19050273911599    0.69648263107252
C         2.50014436195367    0.06575707861978   -0.08911651986682
C         1.58719934203597   -1.09503534079694    0.27075812293563
C         0.65976003890100   -1.88554530214389    0.73442512496474
C         1.92729202590540    1.39889954279985    0.24482728426136
C         1.43686808777087    2.48181694947024    0.39810265250730
C         2.75771779762523   -0.00291173856494   -1.65782335892324
N         3.63256920929736    1.09482212228658   -2.10542056107477
C         4.95587116380250    0.87855147579069   -2.35120977611030
N         5.55062362427779   -0.25195935593824   -2.51657400859476
C         4.81758532430197   -1.39867617878406   -2.28403801871885
C         3.51398257604336   -1.30024557726856   -1.96420361457673
S         2.60542440326692   -2.76229343989007   -1.69870443660952
N         3.50744754261000   -4.02265281519920   -2.29284964518082
C         4.78227767147119   -3.92331506190451   -2.47177480485896
C         5.58505946342579   -2.67910713047036   -2.29482929454134
O         6.80116002670568   -2.70726817959294   -2.15005233653455
H         4.52031071894778    0.64196656588302    0.69600887085934
H         4.33966960257728   -1.02431351262034    0.22820164359332
H         3.53902298111517   -0.44839983238401    1.72794805604200
H         0.08222755208635   -2.74058015315662    1.00283385896907
H         1.08398653903076    3.46855468404414    0.60760074311285
H         1.82135565084512    0.00705309836501   -2.23435209967215
H         3.31890124280370    2.06088936048492   -2.10357149685638
H         5.57362730560186    1.78010471585586   -2.50669791693077
H         5.28886133180040   -4.76279363640227   -2.97318195187924
