26
 energy: -46.148978909193 gnorm: 0.221339433427 xtb: 6.4.1 (79825abcba525fcdf90b791dcacef51065a7a4e7)
C         3.86105639954879   -0.51430677076018    0.69443259372803
C         2.58351284395506   -0.03254780673094   -0.02777891671618
C         1.39897130081927   -0.92634174646502    0.30147960416013
C         0.17622406768648   -1.37292208523998    0.37558749985215
C         2.22511868801134    1.29679778729829    0.53909059628105
C         1.80874250872749    2.32309079147334    0.99742743080522
C         2.76807430896913   -0.08340946948616   -1.60741520220387
N         3.51612825873302    1.12260317451964   -2.00323923279052
C         4.81917456997717    0.97711658378300   -2.37635765116263
N         5.44364255857728   -0.14943482773978   -2.38358261117706
C         4.78655162683591   -1.36049489168584   -2.29446122011276
C         3.48104473613660   -1.39107208038270   -1.96876269966785
S         2.60482959032000   -2.88768876626011   -1.80771238984538
N         3.73581333831912   -4.05785835108338   -2.13442163009611
C         4.98643164334275   -3.87643319142416   -2.39920988356671
C         5.66209219976472   -2.55122857768446   -2.50474294800032
O         6.84327910269955   -2.44133163182718   -2.81031478112879
H         4.75753890659972   -0.20349893739735    0.14287156621428
H         3.94342971627193   -1.60296015633032    0.60322769782659
H         3.87780741819410   -0.11774782739564    1.71604910948191
H        -0.70355449840799   -1.97384244691965    0.33614102060659
H         1.28802573822035    3.09825117760845    1.51708753770805
H         1.79702704286880   -0.04372247941687   -2.12195471598418
H         2.92307442308461    1.94264517061499   -1.91666445185655
H         5.33127108126880    1.92040191908921   -2.63436422776034
H         5.48736877232232   -4.84462725536160   -2.55548736608116
