26
 energy: -46.153652872533 gnorm: 0.210677345752 xtb: 6.4.1 (79825abcba525fcdf90b791dcacef51065a7a4e7)
C         3.97943745898077   -0.00659271988669    0.80419970792052
C         2.64836583163692   -0.01129397007980    0.02060227472886
C         1.59323086873635   -1.06662392799659    0.30936922779110
C         0.70855338664150   -1.84881863401887    0.86213860061057
C         1.91424478835761    1.23438836432329    0.37597388821106
C         1.13263376122536    2.13396331941901    0.50469154827312
C         2.88857792151887    0.01472337491429   -1.55214116343985
N         3.74265174541347    1.14710008401753   -1.95090021363078
C         5.03993843008094    0.86713825485342   -2.26231959369431
N         5.60499805200488   -0.28016931686753   -2.41569338060252
C         4.87477152084619   -1.43702909559193   -2.22908611204718
C         3.56671974000847   -1.30326122400468   -1.94191116288612
S         2.47383932725715   -2.65936884014758   -1.95358403748264
N         3.41107069957529   -3.90218251226566   -2.52992730277901
C         4.69350169139065   -3.86374110152235   -2.67472739527757
C         5.61266737909071   -2.72502300063891   -2.38788732908270
O         6.81634923443765   -2.90162852907069   -2.24430994202886
H         4.66435516071276   -0.83670434749281    0.58901515808183
H         3.72395320942770   -0.05181481283719    1.86860219456500
H         4.51177526229300    0.92442055702217    0.57821156139964
H        -0.07231352088780   -2.57031876226768    0.78241360339463
H         0.47713830881543    2.94785161229844    0.72824865100977
H         1.87955915975873    0.02893315138535   -1.98910568546390
H         3.32885294796470    2.07249719215007   -1.88696531704639
H         5.65684935819547    1.74108240566793   -2.53478975095851
H         5.18129454574296   -4.74070312921126   -3.12833090557127
