26
 energy: -46.152387975703 gnorm: 0.226366888008 xtb: 6.4.1 (79825abcba525fcdf90b791dcacef51065a7a4e7)
C         3.76837163130895   -0.09304642223149    0.93244080762584
C         2.55430348388658    0.11059538216430   -0.00049393986045
C         1.43728815232380   -0.85719299723495    0.35458328613495
C         0.46319986835346   -1.69981536730300    0.55750277758776
C         1.87946823262010    1.43303147348944    0.11223272180903
C         1.19891903019564    2.41027902518218    0.24846457181872
C         2.95830976641311   -0.01781668779779   -1.53417901370899
N         3.85723630102876    1.09338426573839   -1.89179808332213
C         5.12603783415514    0.81214128008050   -2.30332991113539
N         5.73559198851030   -0.32004861933727   -2.37896273181379
C         4.92079819156622   -1.41692440261535   -2.18058888875921
C         3.64070429409708   -1.37011719818684   -1.76763435625249
S         2.67711735781329   -2.80196221713056   -1.53338714482036
N         3.46535887595165   -4.10056737412422   -2.20231164015415
C         4.67188589488342   -3.95501362316077   -2.63840877835300
C         5.49245673494170   -2.71001468376200   -2.65992224303378
O         6.67809543539340   -2.77088669479910   -2.96193129495828
H         4.68256909298225    0.37539681802358    0.54603960229302
H         3.93008945942636   -1.17616229609443    0.96370161120858
H         3.57879254100915    0.31784580202290    1.93067286671644
H        -0.32414647111340   -2.33951980468895    0.88542898770157
H         0.54254888496337    3.22890503080696    0.45118581588435
H         1.97823040661534   -0.01876080320701   -2.03287964881206
H         3.45405441396107    1.99374977330303   -2.13358980742631
H         5.79472523004041    1.66435983795192   -2.51588144638784
H         5.21359435932165   -4.86463777162033   -2.94155273298939
