26
 energy: -46.145132987967 gnorm: 0.230898311260 xtb: 6.4.1 (79825abcba525fcdf90b791dcacef51065a7a4e7)
C         3.88049599824540   -0.19299939313847    0.78038909607768
C         2.56498883915470    0.07841207506174    0.01777816380198
C         1.38603807848701   -0.86639647064526    0.18459954545626
C         0.29008678926026   -1.57077033005333    0.13182628966221
C         1.90875760347624    1.37912064017839    0.32512965613772
C         1.17437378129592    2.32092532161299    0.42712703383382
C         2.84547928810036   -0.06139697525534   -1.54224722227391
N         3.75263957087876    1.06251424330850   -1.83312810227215
C         5.00806321394851    0.83681382951483   -2.31404826313563
N         5.52846031135652   -0.31558636757628   -2.55959095091684
C         4.74930906331588   -1.44266183392610   -2.38929168517521
C         3.50720242083575   -1.40374615168637   -1.87255247146871
S         2.68265266079956   -2.85561236163571   -1.37681674444498
N         3.73750112473109   -4.04570727743061   -1.85234680425671
C         4.90768228470918   -3.92704370978340   -2.38495273007184
C         5.60230927547302   -2.63697401607110   -2.66250495371423
O         6.74765583271942   -2.60666777481573   -3.09599865966675
H         4.81120703759626    0.11392953680857    0.28635108886320
H         4.06050531807700   -1.24492626671103    1.02801055222212
H         3.83581537260212    0.32458958563951    1.74545136859548
H        -0.55904254913306   -2.18796565330448   -0.05450924563989
H         0.78716336324573    3.28855312211977    0.66341233999462
H         1.92052373158203    0.07039845583009   -2.12220062895348
H         3.45268145854395    1.97279500846654   -1.49683807166355
H         5.65841436245438    1.69970021942150   -2.54003039349043
H         5.56084401581935   -4.78348450140132   -2.61440716280992
