26
 energy: -46.148780367160 gnorm: 0.218625870850 xtb: 6.4.1 (79825abcba525fcdf90b791dcacef51065a7a4e7)
C         3.70764682568199   -0.23862043042392    0.87218821313218
C         2.43955629422354   -0.00223605355127    0.02256033258835
C         1.20412148981575   -0.85627473244059    0.25651807449782
C         0.07009263250435   -1.45888300859392    0.03095524513087
C         2.01702657399184    1.40962432411634    0.23484801659763
C         1.56178284233218    2.45507264632688    0.60432071363207
C         2.85924459150410   -0.12697605255535   -1.50721165206424
N         3.64295105955948    1.04872062802517   -1.92466748631509
C         4.96885845532211    0.87540762133989   -2.18970631514106
N         5.59829975594739   -0.21392128039106   -2.46592498905670
C         4.91238697313594   -1.39020856891614   -2.23734354985180
C         3.65517885036012   -1.41256774954014   -1.75745756398300
S         2.79465019696128   -2.90313358687148   -1.49052005761686
N         3.83366587172822   -4.15905478207720   -1.80399797872500
C         4.98778013534003   -3.95915204165093   -2.34725963001957
C         5.58068307157425   -2.63931362802191   -2.70825044763859
O         6.57412005568878   -2.67068846621356   -3.42431788368199
H         4.22519035885326    0.72451572606200    0.96715872730068
H         4.51394571536583   -0.82975454557817    0.42417878763649
H         3.46128469858298   -0.62599483599610    1.86742018075874
H        -0.91848729983792   -1.85093928865740   -0.04436553779978
H         1.17880269751255    3.44198478229289    0.75059736553305
H         1.93784946871312   -0.16670259683746   -2.10613702305765
H         3.26271846784883    1.94401480266349   -1.63218083326686
H         5.50767308677613    1.80376194688441   -2.44745522506383
H         5.53916774993562   -4.88922566622912   -2.55629350689918
