26
 energy: -46.152319356561 gnorm: 0.218434576016 xtb: 6.4.1 (79825abcba525fcdf90b791dcacef51065a7a4e7)
C         3.84047943841710   -0.08961523637093    0.80448773294176
C         2.56935457997585   -0.00794647248901   -0.06922303869061
C         1.55261223413590   -1.09729638318678    0.23072566546367
C         0.70561248374695   -1.90463256376832    0.80590954142435
C         1.91519433072706    1.25656311521972    0.36670931336313
C         1.57751638838774    2.36607333319618    0.66949604230579
C         2.81204346828841   -0.03415415543255   -1.64158302039468
N         3.60445733804738    1.09705121092046   -2.15459623696144
C         4.95260336505920    0.93046359376822   -2.26889521762118
N         5.54411969179838   -0.20598306821822   -2.40204169192745
C         4.79069714639814   -1.35971863386605   -2.31471287768408
C         3.48248650125774   -1.36528650070533   -1.99861689930368
S         2.51663543822811   -2.81443303131527   -1.97296999288876
N         3.53972675599656   -4.02846931736779   -2.45728402395767
C         4.81020060643865   -3.87399747676590   -2.62789676999466
C         5.58220430616748   -2.62421861822945   -2.37121642208703
O         6.78364703384811   -2.70832074347853   -2.14734993178124
H         4.60990361442008   -0.78974997463980    0.45477392653327
H         3.58587357291935   -0.37918153357242    1.82996181951377
H         4.42372267702017    0.82958866570558    0.93149720658396
H        -0.18154111896077   -2.46931018097381    0.98132136075569
H         1.05883319023812    3.28659640822846    0.82971845341904
H         1.79175187390151    0.10572035101038   -2.02719805257706
H         3.30781522955366    2.01715934375592   -1.84301733936712
H         5.55196941872750    1.85631138957354   -2.31541030222337
H         5.42253357812531   -4.74014615636947   -2.92386165000730
