26
 energy: -46.153315164763 gnorm: 0.226499583813 xtb: 6.4.1 (79825abcba525fcdf90b791dcacef51065a7a4e7)
C         3.83749031966302   -0.12960761445132    0.87988955030076
C         2.51228735010344    0.05147601036817    0.10733243080089
C         1.55371467255770   -1.05939593860187    0.50421949528042
C         0.84975555180279   -2.06501061094685    0.94378454533173
C         2.02103956703466    1.44332878576905    0.30321142009716
C         1.65340321802156    2.57331281089844    0.14605315853623
C         2.77308302756354   -0.10490438945783   -1.45453549719989
N         3.59578050266052    1.02632631123428   -1.91736791627126
C         4.94991626223435    0.90690574467990   -2.01919361002455
N         5.56816731436298   -0.21987876522570   -2.10435738643020
C         4.79171412624135   -1.36086785210208   -2.14487846937330
C         3.48186221416050   -1.40817424004369   -1.83924334469019
S         2.49053033642393   -2.82649837547575   -2.03715610251981
N         3.47363648155483   -4.02473307496101   -2.63120655657175
C         4.74498200872803   -3.81076181024703   -2.70171124254423
C         5.56370146193167   -2.57417845808715   -2.54556458665639
O         6.77679033442870   -2.67452786505538   -2.68340282496262
H         4.69782530212905    0.21899705361632    0.29439790818478
H         3.94983616580742   -1.15653961304507    1.24466203950568
H         3.74467124423750    0.44447196044373    1.80889824676147
H         0.26081889997548   -2.90079416959688    1.24592868192929
H         1.24970948474197    3.56272923528986    0.15841080189867
H         1.76471046857647   -0.08700792505411   -1.89285417865826
H         3.06722374234557    1.88858859289378   -2.01122116955271
H         5.47665753895587    1.84902794779342   -2.25059551397340
H         5.34748603319309   -4.65608124299883   -3.06938551907502
