26
 energy: -46.151914000275 gnorm: 0.227018268797 xtb: 6.4.1 (79825abcba525fcdf90b791dcacef51065a7a4e7)
C         3.66013366881863   -0.12042844636713    1.00916908042355
C         2.46031792625685    0.03936115414040    0.04963369343718
C         1.39898560108438   -1.02946222394281    0.25361338121013
C         0.62207596324483   -2.01548798200648    0.60603554431941
C         1.76854997916853    1.34682250272473    0.21977792145523
C         1.48338730784407    2.48975210712094    0.44139308774739
C         2.89282754343653   -0.03825612747381   -1.47968367913433
N         3.83138045803028    1.05829977541313   -1.77533796418564
C         5.04564831118365    0.89229822575846   -2.37225542711602
N         5.54300591623116   -0.25137063823660   -2.69441609372878
C         4.86704406792398   -1.40621772860289   -2.35414948249305
C         3.62741336529877   -1.33561329614828   -1.83482928590275
S         2.62136209140272   -2.74521181614854   -1.64923686509180
N         3.52439146438769   -3.98520741152524   -2.28335743821266
C         4.74238141177016   -3.86222783066071   -2.69378473703720
C         5.63153968970254   -2.67533414889551   -2.53725154961366
O         6.83347496864647   -2.77758180193832   -2.75067832205506
H         4.59499146911658   -0.01393158909981    0.44419007807510
H         3.61814997184057   -1.07544106998147    1.54438692784642
H         3.68347063162737    0.69237628605240    1.74404576958691
H        -0.15039305643939   -2.74214238147704    0.71529039070655
H         0.92799299077019    3.39073926009899    0.58912768610274
H         2.04935636216940   -0.03664216556918   -2.18524198533053
H         3.50458423302651    1.98345466983205   -1.51271738038036
H         5.50439108288361    1.87456314854925   -2.58036151686607
H         5.23564132820971   -4.75786186412802   -3.10280153665814
