26
 energy: -46.156454734525 gnorm: 0.212738862227 xtb: 6.4.1 (79825abcba525fcdf90b791dcacef51065a7a4e7)
C         3.61673190628445   -0.54215035272938    0.82794761176895
C         2.43285832934185   -0.03996703017916   -0.02765390576607
C         1.25760734755037   -0.97220257917111    0.21757952915579
C         0.03339349178349   -1.41299650964055    0.30147178572163
C         2.11150328989458    1.37724019336831    0.29669425606696
C         1.99602076131914    2.50219514051941    0.69400930495147
C         2.75157220301508   -0.13896222896470   -1.58345660835330
N         3.53459582166933    1.03851821499507   -1.99714935593450
C         4.88193088355003    0.95605057683168   -2.18741419729141
N         5.53082210254479   -0.15533001042411   -2.24130231377641
C         4.85571398144953   -1.35972621705598   -2.24733498768371
C         3.55791528033202   -1.40483365679081   -1.89371572534913
S         2.66739655540003   -2.89835552378632   -1.79411387318293
N         3.87988688982186   -4.03148107658359   -1.76165318209193
C         5.09801860604802   -3.82702104666848   -2.13771869920420
C         5.65369839477956   -2.54902835791843   -2.66854480073426
O         6.67051549565227   -2.48202494805212   -3.34843266831034
H         3.92155853881826   -1.53809083363802    0.48199206094510
H         3.31208273112840   -0.53727622871172    1.88029499336836
H         4.46364242107967    0.12201031935250    0.62088945729610
H        -0.67219196712394   -2.21121057764058    0.34239965040740
H         1.77994468472645    3.47554108145840    1.07868450196976
H         1.85477418441215   -0.19119474089578   -2.21771510311520
H         3.07852667815940    1.93831737220237   -2.11563704176173
H         5.38198896278143    1.93580782945858   -2.28023175001276
H         5.82762456628925   -4.64933189717171   -2.07260022847779
