26
 energy: -46.154981152723 gnorm: 0.219139637924 xtb: 6.4.1 (79825abcba525fcdf90b791dcacef51065a7a4e7)
C         3.81269844154352   -0.04763661702296    0.95187964915968
C         2.58580402499493    0.05810771770062    0.01949190045775
C         1.49036772772160   -0.94923394015912    0.32884532400035
C         0.37080956106923   -1.61686852079396    0.35868399641179
C         1.94446880941361    1.37338536040272    0.29459368402509
C         1.28332806749536    2.35775153933775    0.46962297989045
C         2.84995030287708   -0.13377483231941   -1.53784828780816
N         3.66419722203386    0.96240577282616   -2.09112752848188
C         5.02255469387430    0.89531184883354   -2.18427676877533
N         5.64843213777562   -0.23008800370605   -2.15455885237412
C         4.92217980319829   -1.40410465839189   -2.17945937790838
C         3.60833260369033   -1.41874060402721   -1.88799056469171
S         2.62118795496084   -2.83984218323146   -1.68907488309259
N         3.57776192349084   -4.05422673383270   -2.29355518285128
C         4.77803958462987   -3.85787599879464   -2.72697643359151
C         5.64075828343467   -2.65079300162337   -2.57701385446019
O         6.84642471752079   -2.70739056504368   -2.78634410627222
H         4.42954281717794   -0.93564646469648    0.76361525063575
H         3.48088687926335   -0.16243723913688    1.98966179959604
H         4.48940825200348    0.81429422855460    0.97134605226705
H        -0.36454722629149   -2.35141259237839    0.59610141404119
H         0.75409527487235    3.20805217807296    0.84240667328757
H         1.89304767547913   -0.12712926664970   -2.07965264738181
H         3.11082234823073    1.81316025033598   -2.13199307922980
H         5.55470290727374    1.81488658125047   -2.48393999036010
H         5.27193820296466   -4.73971012155837   -3.16423281517569
