26
 energy: -46.149961439569 gnorm: 0.225269156240 xtb: 6.4.1 (79825abcba525fcdf90b791dcacef51065a7a4e7)
C         3.74053059505685    0.03793422965081    0.99180492525332
C         2.51806483154124    0.02549181914492    0.04775972298659
C         1.59705162888019   -1.13087500472519    0.40126768987847
C         0.61532616307712   -1.97038546981224    0.57867697322411
C         1.78353371709304    1.31728665115610    0.14091171667879
C         1.28357303640466    2.40171267505037    0.24473191008980
C         2.89455203903345   -0.03084101697718   -1.49722721659133
N         3.85998239930507    1.04380876309614   -1.78670943823242
C         5.19756966920620    0.79211441210596   -1.86302229595338
N         5.69744196589700   -0.37026643106580   -2.10412192042618
C         4.79606495112521   -1.40503341089880   -2.25628757207770
C         3.50517491841651   -1.38453161398075   -1.87609636967362
S         2.51216001267581   -2.81256334112752   -1.78555089434086
N         3.56494862516415   -4.01355733011287   -2.23766769976377
C         4.80458355438191   -3.83474148320674   -2.55136213536755
C         5.57197135325038   -2.57420934284781   -2.76582985272772
O         6.61762034356824   -2.58660470854787   -3.40388826694856
H         4.04952525788254   -0.96964313800634    1.29809254731614
H         3.45323840923308    0.66492274716016    1.84305018372375
H         4.60414487397882    0.48136099057631    0.48309775772750
H         0.03943119075090   -2.86205243844656    0.67840973855653
H         0.78791703506207    3.33726055951887    0.39013305992943
H         2.01385744236753    0.18206740985374   -2.12036909184940
H         3.50122161254728    1.94835327132412   -1.49556195391738
H         5.80578458293059    1.71277944892726   -1.83064992972685
H         5.34551471670305   -4.71359977656283   -2.93576035867703
