26
 energy: -46.149610618344 gnorm: 0.211638781994 xtb: 6.4.1 (79825abcba525fcdf90b791dcacef51065a7a4e7)
C         3.57018783403703   -0.34580992831087    1.01603429653223
C         2.39128005175847   -0.04906727556966    0.06318648759397
C         1.12431428788800   -0.85888075781420    0.28548654150644
C        -0.07955325181896   -1.33425825302691    0.12814629194675
C         1.96570796280687    1.35701910018370    0.30558419211691
C         1.46334449183046    2.39123117515876    0.64433992764670
C         2.97448300779023   -0.13858927628664   -1.41456882585518
N         3.87030842732107    1.01470797992942   -1.60983823177700
C         5.10503573703743    0.90355256504204   -2.17676533643519
N         5.62589081772900   -0.21043356524256   -2.56000866312588
C         4.91658566428971   -1.38748427519179   -2.42653419758126
C         3.73254400008654   -1.41735215937429   -1.78738163047269
S         2.90309628907532   -2.88996891851512   -1.36670588053974
N         3.93766925640908   -4.09873145597169   -1.83968783959154
C         5.00741516811646   -3.88992019677017   -2.53186961164916
C         5.50443005646100   -2.59473121573080   -3.07893762572396
O         6.34977206706707   -2.56052111680687   -3.96487247149479
H         4.16239644642293    0.56844586356793    1.14992705121621
H         4.14258470295863   -1.20948549767734    0.66009016295111
H         3.11293170901926   -0.75675964168406    1.92338046545389
H        -1.00297701291253   -1.78888557963568    0.40612863170861
H         0.85473563925061    3.25986331177426    0.77525856427952
H         2.16379714977068   -0.03944070390200   -2.15092252576502
H         3.58571169988798    1.91746652008013   -1.24145168957466
H         5.72971995926626    1.80636845152640   -2.29205001101270
H         5.59687085193424   -4.79589770494041   -2.74283682616920
