26
 energy: -46.155508238359 gnorm: 0.219892817042 xtb: 6.4.1 (79825abcba525fcdf90b791dcacef51065a7a4e7)
C         3.80266963095667   -0.41533569086169    0.74368566349485
C         2.52711112030913   -0.08652139408854   -0.06293094623523
C         1.43405641743728   -1.05395327789006    0.36100822968127
C         0.24777272081838   -1.43791933113067    0.74224023715857
C         2.04868468296383    1.29532289833030    0.21735755628593
C         1.74984028119324    2.37294003172847    0.64881144628613
C         2.71900771806288   -0.13154071188299   -1.64187034308384
N         3.47083782042317    1.06184543014292   -2.06767417758178
C         4.81874575000088    1.00232863031595   -2.26239285686374
N         5.47934744796977   -0.09881489189077   -2.36348141450069
C         4.85665245153368   -1.32823428594375   -2.27888536403813
C         3.53539054996053   -1.37036957413672   -2.02619116876978
S         2.64318362146613   -2.86320256126448   -1.93149068623840
N         3.68790903359722   -4.09608943026477   -2.31056694393362
C         4.96059511776655   -3.88472600947425   -2.36223600479524
C         5.66281096733790   -2.57239351913344   -2.45442073973724
O         6.88216066396888   -2.56278666447803   -2.57167266837255
H         4.15825075607624   -1.45293747027899    0.70565184160947
H         3.68800007926644   -0.14044602242788    1.79798944058455
H         4.65353409087139    0.18404138356897    0.40015008656642
H        -0.61982174183249   -2.00310131764899    0.99624969545035
H         1.44816961329310    3.36706805080600    0.89935186838580
H         1.70424924913580   -0.10166087686250   -2.06451820322976
H         3.10987593405990    1.91707894402042   -1.65541323913581
H         5.34730310302625    1.96922034002722   -2.32830950025287
H         5.53225664963366   -4.80925877389767   -2.53887877788185
