26
 energy: -46.149294864849 gnorm: 0.218242407480 xtb: 6.4.1 (79825abcba525fcdf90b791dcacef51065a7a4e7)
C         3.65457155360570   -0.50775688534678    0.89639508810777
C         2.48042687523304   -0.08342181661281   -0.01306779403023
C         1.36796382856392   -1.07189011700599    0.29640569265932
C         0.13905295901532   -1.45391952538365    0.50585350597062
C         2.01232415980128    1.25279465808502    0.44774942993098
C         1.59987725820398    2.29611382475357    0.86975865098474
C         2.87546707688830   -0.07230266988373   -1.55440495488841
N         3.68731429901281    1.08542346664813   -1.96829160941056
C         4.96681069608007    0.98571147463761   -2.42792176896824
N         5.55588542385628   -0.12102594245321   -2.72330933553594
C         4.88089066293496   -1.29979599666788   -2.47580007259807
C         3.61463155533861   -1.33124152955968   -2.02086952539060
S         2.66408214839408   -2.73890510379371   -1.63552448509233
N         3.67704579246228   -3.97167146547376   -2.09307424700373
C         4.89015081347262   -3.79626626069411   -2.49888613095938
C         5.68651608363026   -2.54452240479346   -2.64975489543638
O         6.88081048415819   -2.72211081501682   -2.85658147494475
H         4.61284700193350   -0.14865591382839    0.49983913974474
H         3.77491372126012   -1.59484028481714    0.95993512043630
H         3.51468287254621   -0.18691686328816    1.93501568090010
H        -0.61603013794342   -2.18301204971525    0.69278997448323
H         1.18273642595954    3.25443615899083    1.09264435868462
H         1.91994297468842   -0.07342850140493   -2.09867620712842
H         3.11773328661626    1.89759646193307   -1.75004995192381
H         5.51143266528709    1.91776067740318   -2.65872179526089
H         5.43791476225538   -4.70418529259156   -2.79620431537328
