26
 energy: -46.149167873195 gnorm: 0.229420753047 xtb: 6.4.1 (79825abcba525fcdf90b791dcacef51065a7a4e7)
C         3.87670779383752   -0.32778894659970    0.66451377336628
C         2.56072761053246    0.04192136651900   -0.05472828273451
C         1.35900648562846   -0.80427313852501    0.33287799741102
C         0.27041775567585   -1.50804195736825    0.47330872285852
C         2.03052575603603    1.38796616994605    0.29740308626889
C         1.57395270037213    2.45000208961299    0.61416775300701
C         2.81709773676627   -0.14739379446671   -1.61368138260714
N         3.52317122556090    1.02702443221793   -2.15491140767534
C         4.87262221217666    0.90492618136793   -2.30453578312447
N         5.51224709688960   -0.20155154151785   -2.46490292256274
C         4.84037263035604   -1.39621832861807   -2.29836890703454
C         3.55038371106798   -1.45796474806807   -1.91958304904953
S         2.66866636020306   -2.89209546597306   -1.47304603446101
N         3.64397888644550   -4.05665837985740   -2.14216390742781
C         4.83794930142382   -3.86383498021107   -2.59419028818895
C         5.64684124890888   -2.61125154311819   -2.61764793836360
O         6.87179170688554   -2.60614546396407   -2.62879708346912
H         4.59665836111957    0.49421737839822    0.56214804480020
H         4.32304416098245   -1.22121344877287    0.21412905568366
H         3.75385408611570   -0.47982807364647    1.74295290738149
H        -0.55674366271306   -2.18070496778356    0.47360277612726
H         1.18761136571565    3.39924522491685    0.91706055028381
H         1.85084328611110   -0.14811576924725   -2.13866765543550
H         3.14302725042154    1.93311670461286   -1.89768723027182
H         5.47127945641567    1.80970470437781   -2.10061719881041
H         5.32535121880854   -4.76386917388139   -3.00056232958088
