26
 energy: -46.152660163337 gnorm: 0.223010586687 xtb: 6.4.1 (79825abcba525fcdf90b791dcacef51065a7a4e7)
C         3.75738772801943   -0.01874236601624    0.96941014868314
C         2.55197543500646    0.12292523014021    0.01405147397992
C         1.37466907588243   -0.73770894561692    0.44262585204134
C         0.60229110590742   -1.75025124524321    0.72231699777368
C         2.03127567202307    1.51530075733456    0.09836809380842
C         1.69401296393442    2.64759666841982    0.30055353938287
C         2.84493485258686   -0.19941173098266   -1.51636490854100
N         3.55836858992968    0.91916008096944   -2.15709674560912
C         4.91728214026999    0.82138885575820   -2.20301135227098
N         5.60540869945627   -0.26723464095383   -2.18039981263266
C         4.90259920840224   -1.45494220433544   -2.13812499171368
C         3.59200204328694   -1.49906623697761   -1.83522090098413
S         2.50910828607045   -2.85804144769380   -1.95387665596146
N         3.53551973662660   -4.10896902115594   -2.32376821932629
C         4.80416069876110   -3.94743921521563   -2.50134155164980
C         5.64200640018664   -2.71512269831357   -2.44448842790827
O         6.83566449686453   -2.73862163453619   -2.71886433948915
H         3.68027998363185    0.79849372085764    1.69788906919673
H         4.74892297797167   -0.00873011401225    0.50354805608417
H         3.56194240151103   -0.98308403750658    1.45220013066818
H        -0.21948307589625   -2.36715410091247    1.00655227307384
H         1.47329801390839    3.67441618940542    0.49801947030562
H         1.86625612973143   -0.26299790758634   -2.01376166059340
H         3.12309068365034    1.83631163377020   -2.18939374880185
H         5.53672886125236    1.73485126182152   -2.22468281296000
H         5.24249917218051   -4.88151911252576   -2.88619806824060
