26
 energy: -46.156120256494 gnorm: 0.219949449206 xtb: 6.4.1 (79825abcba525fcdf90b791dcacef51065a7a4e7)
C         3.65481515721291   -0.51065766661466    0.85853365112647
C         2.44270534135521   -0.02174260849911    0.03539905760830
C         1.27369943149526   -0.96826507280103    0.25434618633794
C         0.16173837662329   -1.63838545262461    0.13385528497711
C         2.04354797671165    1.35251678900326    0.44653362574434
C         1.85128962813484    2.53466962114979    0.49418359245065
C         2.77196055905945   -0.08972312750017   -1.51987271688104
N         3.55771498722307    1.06631059565280   -1.98560212879948
C         4.89988746566156    0.93457168535558   -2.18442690280262
N         5.52194647775291   -0.18012225682554   -2.35656218346586
C         4.85002271792410   -1.38355196405992   -2.27499627036251
C         3.58054540133427   -1.35444931339836   -1.82896587559043
S         2.69074292358015   -2.83883864522268   -1.63302821464484
N         3.78578731845229   -4.03690951257308   -1.98039544601222
C         5.00055695213387   -3.87061277454718   -2.38506096783228
C         5.68171547665505   -2.56858533232615   -2.63916584555400
O         6.76818770183288   -2.48432161767377   -3.19874757740542
H         3.53432669515912   -1.57238727428070    1.10896274757047
H         3.70216043427428    0.04070794013571    1.80406222348414
H         4.62986210174989   -0.32660764194582    0.39307802581589
H        -0.66966277427384   -2.28622617102028    0.29431137760156
H         1.60979284640963    3.52400408126957    0.81816328097139
H         1.78199043492581   -0.04810540169716   -1.99682751330772
H         3.10038437333358    1.96450916041223   -2.11116075420224
H         5.45464849841139    1.88748253875751   -2.23732829154429
H         5.60978725976668   -4.77931118803778   -2.51102140115257
