26
 energy: -46.148738007240 gnorm: 0.215935503031 xtb: 6.4.1 (79825abcba525fcdf90b791dcacef51065a7a4e7)
C         3.67030719152759   -0.05960260617747    0.86542380137897
C         2.44442348068644    0.00077254436808   -0.07231958953674
C         1.48938897852493   -1.17079812054764    0.08814447371213
C         0.81721903204013   -2.11181962160530    0.69039265316234
C         1.79316037335529    1.31924907349699    0.16096808537702
C         1.41828422989206    2.37890866998253    0.57727149478915
C         2.82620289780997    0.00739883092601   -1.61702060123302
N         3.74073483147564    1.12043839761508   -1.92605480908614
C         5.05206886804971    0.87188999564918   -2.20343564597759
N         5.63736095550963   -0.27509836748204   -2.23476332409103
C         4.84555181380616   -1.40448815242023   -2.17235664457901
C         3.51837487847040   -1.31422358686340   -1.96786599679843
S         2.47854604387630   -2.69582695123682   -2.17638419043400
N         3.56769415286734   -3.94727563350902   -2.22922942241273
C         4.84923568011841   -3.89194787442850   -2.08204175143284
C         5.64199775963931   -2.65578520260332   -2.34137132773605
O         6.81489718610502   -2.68449698496508   -2.69370150777184
H         3.40225216359158   -0.56808831782853    1.80035200436229
H         3.90519673052208    0.96037779531002    1.18905441560197
H         4.54680362220639   -0.52971781212583    0.40500486637446
H         0.16942743289835   -2.95611725196657    0.75519378400315
H         0.97455918602284    3.31654737905639    0.83419160794227
H         1.94245852705883   -0.01944452489737   -2.27088151068747
H         3.40801000355800    2.08006986449345   -1.91719164946525
H         5.71711310575461    1.75291175861690   -2.19274579308821
H         5.45871667760873   -4.80915212798156   -2.07659378898017
