26
 energy: -46.153929653213 gnorm: 0.225846497136 xtb: 6.4.1 (79825abcba525fcdf90b791dcacef51065a7a4e7)
C         3.80743674749778   -0.01359056290779    0.85973591853492
C         2.55212278289008    0.07183661895354   -0.03619250841112
C         1.68542964860414   -1.11560419115886    0.35012958544092
C         1.08178739079669   -2.17027761777693    0.82269359907956
C         1.82248845112541    1.33914572628498    0.24400116209761
C         1.16255990400746    2.32972789335653    0.38528240434513
C         2.83304594587448    0.04793607414959   -1.60221025721691
N         3.87675475950214    1.07202914160212   -1.78285685748031
C         5.19100870761064    0.81221572991334   -2.03494206859238
N         5.70878606270921   -0.35052347235667   -2.23261534709537
C         4.80251363819003   -1.39207402792599   -2.21777129981794
C         3.47562039526890   -1.27814200907062   -2.02351225196753
S         2.40992915938459   -2.65573682291171   -2.01421533770687
N         3.35114281640295   -3.94445703814862   -2.47080825012444
C         4.62570719550702   -3.89206581184445   -2.67034487369497
C         5.48520329592784   -2.68074082646282   -2.53700344083853
O         6.70851665846986   -2.72915354293336   -2.57960187534662
H         4.23913738152195    0.96047393817762    1.12305107074949
H         4.64696419778904   -0.49373006791641    0.34502279004847
H         3.58236907650946   -0.59424855185357    1.76163432771589
H         0.41811598188414   -2.97746114156200    1.03403844218748
H         0.59533918956499    3.20766414298724    0.60789149570333
H         1.90513242264122    0.23219144896943   -2.16282172226159
H         3.69926615542351    2.04637345621496   -1.55740646767815
H         5.84581701400213    1.69599182000601   -1.94132921630131
H         5.12328335347030   -4.83553858585504   -2.94427461764840
