26
 energy: -46.153396199532 gnorm: 0.224255150352 xtb: 6.4.1 (79825abcba525fcdf90b791dcacef51065a7a4e7)
C         4.06685441242105   -0.05972116518649    0.79845548526746
C         2.69427842499537    0.05818366815732    0.09993397235570
C         1.68632030982390   -0.99308481082678    0.53498853536286
C         0.79486803576287   -1.93307774507906    0.68251108028439
C         1.89468007053158    1.27748841098307    0.40140627457937
C         1.27800890483147    2.30054883288655    0.50031612801293
C         2.82337200664172   -0.04278489555874   -1.48279811037830
N         3.63423165162602    1.02825633887393   -2.08786438598986
C         4.98586236681753    0.85315689860377   -2.06051482660753
N         5.59209580806985   -0.28256170928883   -2.10240539332019
C         4.82045961126971   -1.42737190402613   -2.08330572444975
C         3.49508293824084   -1.36859567950224   -1.85684430759868
S         2.41491116399217   -2.69340960633848   -2.19098305037641
N         3.41082152957736   -3.86841669787249   -2.80959512975261
C         4.69996102350977   -3.79661345241219   -2.81573609077649
C         5.58567263737621   -2.66472189139736   -2.41804510579330
O         6.79191079692825   -2.81865126501977   -2.26989236336421
H         4.84037648585201    0.47934416097203    0.23669562954208
H         4.40217767417097   -1.08444120375157    0.99281864518782
H         3.92928631442474    0.29800485909663    1.82526949421040
H         0.16684386845044   -2.64922107950189    1.16146410636625
H         0.60403906959365    3.06312048735300    0.82637646310979
H         1.80040796592840   -0.01001183236210   -1.88495388466670
H         3.24767717333137    1.95623231061716   -1.94256071144914
H         5.60674667708244    1.76464092629495   -2.10844185967050
H         5.23094545840743   -4.70245975968898   -3.14778790474099
