26
 energy: -46.151072995266 gnorm: 0.219572471523 xtb: 6.4.1 (79825abcba525fcdf90b791dcacef51065a7a4e7)
C         3.79211919891695    0.19953615492251    0.85933137333110
C         2.52865568798705    0.13983379070889   -0.02717541675057
C         1.73272997589628   -1.06487081079329    0.44780513615181
C         1.18970604494552   -1.91379762415367    1.27514125245277
C         1.67991062200045    1.35366643300803    0.12510478191529
C         1.01918555099026    2.34886743032286    0.22377831454958
C         2.93774570329168   -0.02028380400034   -1.55652441400133
N         3.86899739173284    1.06484913292262   -1.91146761943993
C         5.19524660543738    0.75804523460138   -1.83902598031674
N         5.67324387146560   -0.43360279304237   -1.94209951608084
C         4.81425644890197   -1.49643235638166   -2.13935958079524
C         3.48500885279365   -1.39550048170425   -1.95422089322590
S         2.40539985868516   -2.74291456081716   -2.18328729335637
N         3.40952196939337   -4.03766464644482   -2.44884525306029
C         4.69116627901771   -3.96709089512575   -2.58842057537219
C         5.50793833490933   -2.72042245480804   -2.63864918916023
O         6.69174823600471   -2.75881427566557   -2.95133782392868
H         4.64941249330715    0.74634939137339    0.44635988265298
H         4.03024467343932   -0.83059521327608    1.14637756188827
H         3.43469498588835    0.79132110331704    1.70978913749644
H         0.60508686067422   -2.70625557731800    1.68367819402589
H         0.58417221048815    3.31925406503613    0.11804572280040
H         1.98566308048733    0.11994538312662   -2.08862705660680
H         3.57613994163537    2.03628976459988   -1.86440878204673
H         5.85834310273637    1.64047033160591   -1.85407401791293
H         5.23587609977698   -4.90513747063867   -2.77847384529628
