26
 energy: -46.152656963138 gnorm: 0.219859346637 xtb: 6.4.1 (79825abcba525fcdf90b791dcacef51065a7a4e7)
C         3.80069996981243   -0.08709503322135    0.82434386621787
C         2.50380159586430    0.07148656185042    0.00050821725728
C         1.48391592807676   -0.99294802972929    0.37095342020991
C         0.93034865789736   -2.01479053840643    0.96208616790753
C         1.85609092684012    1.37909240190085    0.29645579555081
C         1.24412758831755    2.35202075381063    0.63650049025512
C         2.89527501435186    0.00863700083558   -1.54049766257247
N         3.78815614519255    1.11670926280811   -1.92216114093476
C         5.09523031035120    0.83693189783338   -2.18973382674925
N         5.62787000651880   -0.32830368598367   -2.32259294138577
C         4.79712544265458   -1.42656468188796   -2.22227417241687
C         3.50902312713855   -1.36399892886014   -1.83725379852065
S         2.46369532892035   -2.74931696912096   -1.98468314784640
N         3.46614232383180   -3.95220166420287   -2.53543577592055
C         4.73404325856207   -3.86081406563631   -2.76159851067921
C         5.58388040782836   -2.67184152222076   -2.46504698711742
O         6.80866972458728   -2.69468172764378   -2.46020517406679
H         4.62417779868991    0.50858953280750    0.41016259690055
H         4.05286407869956   -1.14984784187165    0.73925791384862
H         3.73263055363328    0.25615405167276    1.86299034752213
H         0.31391386622879   -2.81696582616950    1.29853018850220
H         0.66674443756251    3.23592612053416    0.80204867542491
H         1.98739863160170    0.08282045366999   -2.15654640293053
H         3.38321442391597    2.02462927199405   -2.13044070432304
H         5.71760795395617    1.67841358507173   -2.54066415360344
H         5.21050073201958   -4.68857819754816   -3.30982768473586
