26
 energy: -46.149518801551 gnorm: 0.224263110007 xtb: 6.4.1 (79825abcba525fcdf90b791dcacef51065a7a4e7)
C         3.69313943824146   -0.42657049535053    0.80960783157309
C         2.52514835524756    0.03212041508268   -0.09105757630492
C         1.36784523567067   -0.91956965777288    0.16458462180125
C         0.48007260962421   -1.70382058205214    0.70942131285013
C         2.09040955073069    1.41893164738872    0.23252225915767
C         1.73081070700437    2.56235081344511    0.23315077704917
C         2.87703227540080    0.00079466484680   -1.64253978571641
N         3.72600519096360    1.08921187470168   -2.15763281862404
C         5.07053302142444    0.88212342541657   -2.24522664682472
N         5.58431260333520   -0.29234362345904   -2.37087793039769
C         4.82113717196294   -1.43039780191539   -2.20125027848174
C         3.51061285528333   -1.37062687266152   -1.90072377001935
S         2.51140277393127   -2.76974629689368   -1.62216365064741
N         3.54522149935322   -4.01846216267061   -1.97865706379713
C         4.80156082266147   -3.91479567411909   -2.25783230686652
C         5.58238263363803   -2.67289350072583   -2.52582106989863
O         6.72319233004917   -2.65555963207935   -2.97181070812804
H         3.35740352741330   -1.13759776392688    1.57526022137928
H         4.05383522113045    0.48252153622982    1.30328801271074
H         4.47978826350096   -0.94748393270043    0.25186890306363
H        -0.24631759611864   -2.34685384040003    1.15161711115986
H         1.60342731647865    3.61409755823278    0.37339508334737
H         1.92670627012928    0.10242070958301   -2.18642524435307
H         3.31193932510600    2.01575991408288   -2.11597818277422
H         5.62383156463943    1.78169194853021   -2.56652813994581
H         5.27946823572796   -4.90694516892351   -2.25576112550088
