26
 energy: -46.148435872395 gnorm: 0.226913475382 xtb: 6.4.1 (79825abcba525fcdf90b791dcacef51065a7a4e7)
C         3.46514785762903   -0.42528602633677    0.86513817460025
C         2.33670289075353    0.02072504813441   -0.09062578927133
C         1.11054096388228   -0.78178999953790    0.31300015408049
C         0.22202074276470   -1.59115691211033    0.81846404504067
C         2.10394421092669    1.48539367078813    0.04172338586524
C         1.84924892750920    2.63814916074956    0.24909786511629
C         2.77541842422213   -0.16420802077137   -1.60892386229149
N         3.55913783181624    0.98964947259350   -2.08339687513175
C         4.90511781590134    0.87207889074564   -2.26458306349880
N         5.60230597901590   -0.18918226189344   -2.48087913719017
C         4.89894783139882   -1.35456476283617   -2.24947356455359
C         3.60643223780656   -1.42297796743816   -1.88057546994401
S         2.76303719740704   -2.92569444752670   -1.62743583792945
N         3.83671277111652   -4.14185592473483   -1.97862246853830
C         4.98680112086702   -3.90253784423392   -2.51443745905292
C         5.68101186252534   -2.58407458655692   -2.57400071597677
O         6.81429547142898   -2.48182428534644   -3.02772655161128
H         4.29326497039977    0.29347450534710    0.91104353132278
H         3.81353172698696   -1.41091889462770    0.53737848439158
H         3.06536580729075   -0.52656286898368    1.88059728593989
H        -0.55877990555111   -2.14858109080267    1.28354494093501
H         1.65454326379228    3.66292946569006    0.48143646013884
H         1.84003745020865   -0.18191198741867   -2.18685790805386
H         3.22218809412815    1.87362325636848   -1.71362377405912
H         5.37608308508240    1.86681622651730   -2.17922026189947
H         5.63258289438632   -4.79378372249042   -2.55194875239932
