26
 energy: -46.150260607384 gnorm: 0.210865103790 xtb: 6.4.1 (79825abcba525fcdf90b791dcacef51065a7a4e7)
C         3.73523348619257    0.02257462664439    0.85426629105283
C         2.49498290338053    0.04153330997213   -0.06617804380720
C         1.49948171558760   -1.04389871802675    0.30963062440284
C         1.23704625924634   -2.23035754299611    0.78236720384622
C         1.90935445193565    1.39671248955739    0.12740878272369
C         1.38988410586329    2.47650577317212    0.15767669375545
C         2.81521009381114   -0.01984954155752   -1.62360777035394
N         3.72295235038240    1.10341167756172   -1.91518300772156
C         5.05811435318230    0.87713149838800   -2.07155789941226
N         5.60263309712354   -0.28739347115632   -2.15225172335589
C         4.81467702668742   -1.41351830645220   -2.28395476906490
C         3.50580260970767   -1.34106743423957   -1.97905907623755
S         2.42697027902691   -2.70371669108836   -2.09245888101794
N         3.44161890987480   -4.01520158449190   -2.01725542452610
C         4.72264686116994   -3.86882140670907   -2.08518399638745
C         5.56695891907835   -2.69304844809025   -2.44367639690204
O         6.67523509808436   -2.84632984030280   -2.94255786118206
H         4.54586894834479    0.57713089111396    0.36453221828289
H         4.08842325992135   -0.99288368585067    1.06491122821596
H         3.54022655767547    0.51386091711655    1.81439647892252
H         0.54586137964634   -2.99835679751120    1.04525928219952
H         0.93482976549462    3.44340765360810    0.16729511651519
H         1.92906119985158    0.02487549271650   -2.27322194565556
H         3.34043962723573    2.02108375471289   -1.70724335119660
H         5.70465943038119    1.76217329396348   -1.94011231323601
H         5.34202390702173   -4.77647754306480   -2.01243217798375
