26
 energy: -46.156710042919 gnorm: 0.218330363027 xtb: 6.4.1 (79825abcba525fcdf90b791dcacef51065a7a4e7)
C         3.78562596006356   -0.38744646286942    0.69492775033714
C         2.52408288424701    0.02674837394451   -0.09421761519638
C         1.49013067858696   -1.02650487939387    0.26912500287208
C         0.37966580704380   -1.57591467892439    0.67539266243164
C         2.03314435518256    1.39460635213551    0.22965123939285
C         1.66899607113629    2.51531564505639    0.44902720199188
C         2.77236885244348   -0.01274106032726   -1.66542584800768
N         3.71434116577008    1.05329262552989   -2.04881628680846
C         5.03080875800853    0.86972005860501   -2.35135155237151
N         5.58374660776337   -0.28224632756377   -2.51372069881196
C         4.80592618186206   -1.40155612223861   -2.29345138659203
C         3.49067562053040   -1.31930621096728   -2.02011340079567
S         2.52861427187510   -2.74311188606193   -1.73591792262664
N         3.58662055969979   -4.01380912618092   -1.88121501518695
C         4.83124728365522   -3.91992158831142   -2.21161402480420
C         5.58676361903477   -2.66114659781379   -2.47334343565985
O         6.77011194349850   -2.71842791094873   -2.78488730510857
H         3.68734387141401    0.16876624520062    1.63592191556346
H         4.70980535127193   -0.14450976181554    0.15906946596559
H         3.82633099998485   -1.45814471371124    0.92555353401015
H        -0.25378132392186   -2.36681025147292    1.00690518960901
H         1.31713387527703    3.49390616177338    0.69523808624971
H         1.78814176880496    0.12988984028156   -2.13469361303422
H         3.31517962090637    1.95174576924559   -1.79361257245417
H         5.67729702818110    1.75107680492259   -2.50582051376231
H         5.34899994955607   -4.88896335869082   -2.28678471367364
