26
 energy: -46.152490707179 gnorm: 0.223893382183 xtb: 6.4.1 (79825abcba525fcdf90b791dcacef51065a7a4e7)
C         3.81709210730501   -0.25303008150113    0.96338345967845
C         2.59053696044308   -0.05156430165127    0.04644687527433
C         1.50397319955794   -1.08541774713881    0.29331459662021
C         0.45868718685913   -1.86097184993808    0.37031942124234
C         1.97825080930891    1.27284935235149    0.34306325498153
C         1.43330412975721    2.29266978981072    0.65884562373017
C         2.86533515913391   -0.01342717541829   -1.52037543476559
N         3.71343742914946    1.12750269113414   -1.90732433435354
C         5.00329050387734    0.89825694744362   -2.28420472388478
N         5.61230708796013   -0.23674305768975   -2.28628945741081
C         4.84286362085314   -1.38253127211512   -2.24751165875165
C         3.53390623233048   -1.32732554835759   -1.93937918564984
S         2.49873639006421   -2.72789446164597   -1.91983912221522
N         3.55310458496991   -3.96244761661825   -2.26530437787798
C         4.83648330699570   -3.87087691325582   -2.37313720451897
C         5.63962474422834   -2.62036646697109   -2.49564904200554
O         6.79387396084041   -2.60750294553933   -2.90576763979616
H         4.74638103763983   -0.16252054550000    0.38655413725983
H         3.91342576528290   -1.23745870889965    1.43443546091139
H         3.79178963575681    0.62422064717179    1.61991285196446
H        -0.33764215189217   -2.55051956592004    0.53480392856033
H         0.89247887516310    3.19299731214877    0.85629081795519
H         1.91126568475410    0.07905331474279   -2.05931658247980
H         3.30958677134414    2.05283346991999   -2.01843020812716
H         5.63057038997506    1.79416241004245   -2.43410737077160
H         5.41156014576435   -4.80841356753637   -2.42856337483280
