39
 energy: -52.266994199849 gnorm: 0.115783016771 xtb: 6.4.1 (79825abcba525fcdf90b791dcacef51065a7a4e7)
C         3.81760779303794    1.44288690562631    3.77593582816752
C         3.67548594922247    2.06261081223665    2.37957082930372
N         4.73440270089871    1.54141345234300    1.53273767969051
C         4.68698630176558    1.27861374024667    0.18864296515890
N         5.84087629209910    1.14220909763629   -0.39461343711606
C         5.56476966192980    0.95827760217097   -1.81824607321552
C         4.11185317841765    0.51215920928163   -1.90132203737058
C         3.43270921046356    1.17196406633731   -0.70039364161359
C         2.85851382570168    2.59117256524401   -0.98265753669742
N         2.30665013882082    3.37373548280452    0.14243066666091
C         3.34539219869150    4.12151480808636    0.84265276787619
C         3.65509228009115    3.61556697862288    2.28038603093940
N         4.89271127932436    4.40245587451801    2.49761913064339
N         2.41434874030055    0.28978507473546   -0.11461286239701
C         1.21672735843611   -0.22763869892091   -0.52896082472388
C         0.74822448270962    0.14059601927024   -1.91458006549469
N         0.64454403150447   -1.19646950131821    0.10407163591512
H         3.11597417767258    1.87447873001314    4.49473817526257
H         4.81140468149752    1.57368703711017    4.21397656610834
H         3.75653872165772    0.36091525637920    3.62288070776443
H         2.72435238064780    1.69057794362251    1.99114621051137
H         5.61399266340652    1.50212058691953    2.04436970017739
H         6.23566563170866    0.16508639366247   -2.16976069169650
H         5.70833974516484    1.87103021064865   -2.40074911796847
H         3.95044834772605   -0.57015110113314   -1.82983678921257
H         3.68339697697518    0.91257883057490   -2.82896722531326
H         2.07124125212075    2.55442067082153   -1.74401688080814
H         3.69020746067986    3.11719342143592   -1.46832660028355
H         1.74117575675519    2.76327150675785    0.72999903405802
H         3.23727494251915    5.21418784783106    0.81062233223597
H         4.31070723972054    3.85868880289981    0.39150941694271
H         2.85985644843990    3.90572717886554    2.98049124919364
H         5.71773461352490    4.00260635232001    2.04392923468213
H         5.08168765696315    4.44874427930305    3.49688416906229
H         2.58332384023573    0.01961049653989    0.84910324195489
H         1.57666480830027    0.16249059745837   -2.61769220375157
H         0.23936972180071    1.10846781839496   -1.88623092171484
H        -0.02715730350115   -0.54883898928784   -2.26368022534941
H         1.10703051316914   -1.48705019764877    0.96702818041102
