39
 energy: -52.263323037347 gnorm: 0.117781565435 xtb: 6.4.1 (79825abcba525fcdf90b791dcacef51065a7a4e7)
C         3.88391282590263    1.44051305525279    3.65825821986568
C         3.82336919414306    2.06843459758856    2.25963728064156
N         4.94480757632763    1.69785326881380    1.41398773344546
C         4.85490680402993    1.16780125734764    0.15348573238864
N         5.92456030227773    0.75895886435911   -0.46209986952876
C         5.54024188098920    0.25657709947374   -1.77994183567589
C         4.05448555066501    0.53255298891082   -1.96230127284847
C         3.54984575022154    1.16825193257564   -0.66614020851041
C         3.02353579331442    2.59549175925581   -0.99706361874269
N         2.27851752207855    3.35458168916255    0.02836894877666
C         3.00610474031814    4.17700345135274    0.98894650311876
C         3.52188729872893    3.59333854610247    2.33515520967612
N         4.64787554367448    4.49859066989346    2.66795272928315
N         2.51223237829895    0.41506503229013    0.05114978861591
C         1.38218042826797   -0.12237054820015   -0.50369629946616
C         0.75145019483915    0.55600134635753   -1.69408421374024
N         0.69262286223726   -1.02275665837058    0.11320904904262
H         2.83593546606395    1.37807297859413    3.96335285640384
H         4.40898172388972    2.08460859278525    4.36964011771252
H         4.19901012559489    0.39575837727075    3.57447696325805
H         2.89689896462039    1.72210719668437    1.79525873026546
H         5.88137253153457    1.72533703897373    1.81283666205450
H         5.71919871132765   -0.81851715814923   -1.90226519802708
H         6.15819333927809    0.76230441259306   -2.52520377959430
H         3.43405782844853   -0.35545128743573   -2.13281553346114
H         3.78437423439203    1.11682396311778   -2.85117892613283
H         2.35191639478280    2.32508011555022   -1.81963385302951
H         3.78538472999233    3.26604121295465   -1.41447983116396
H         1.67380346369797    2.72319331808362    0.55118225836980
H         2.20731072521122    4.90747815260052    1.17598791253593
H         3.89622956129002    4.54074389515927    0.45997425206494
H         2.78005033431155    3.73193481959792    3.13340909484615
H         5.27105374532041    4.56362390786715    1.85937541692436
H         5.26827738935877    4.02554802324477    3.32195388098072
H         3.03985669308048   -0.30693333636270    0.53138574338774
H        -0.22000135360882    0.14441262996422   -1.95492141119292
H         1.37233306427464    0.52958930232570   -2.59426171130301
H         0.40461114872146    1.57941429117940   -1.51876425815103
H         1.21888864451734   -1.36063462883140    0.92061705775146
