39
 energy: -52.264088283108 gnorm: 0.119231458878 xtb: 6.4.1 (79825abcba525fcdf90b791dcacef51065a7a4e7)
C         4.04394571415388    1.69653013766971    3.81440983355313
C         3.73852034106161    2.00441332575492    2.34267112798538
N         4.82123622762473    1.55040497459750    1.48728790607988
C         4.76728189279149    1.18066635975564    0.16884759161225
N         5.92643965445524    0.82720319733127   -0.30197448756798
C         5.74496942214675    0.62173621265064   -1.73781828577062
C         4.25265396517248    0.51779528060219   -2.01903063386588
C         3.56298075554323    1.11223454086800   -0.79029113064701
C         3.05003282691487    2.56991394318071   -0.97892078960835
N         2.14409173876157    3.15765426338948    0.02935186304687
C         2.64578072742215    4.04511229083993    1.07299756491571
C         3.54242687092356    3.54492872199037    2.24125110648782
N         4.81012726529070    4.31218514712422    2.19289391896310
N         2.54933423914090    0.28269331965014   -0.12484465791072
C         1.28269268002994   -0.05269914527845   -0.52087445076259
C         0.54841946387839    0.58102927940320   -1.67597770412102
N         0.61546372825368   -0.95049503968905    0.12373785679007
H         3.29765136827744    2.06117504304431    4.52526627836941
H         5.01027919585795    2.03908908585243    4.19581982660871
H         4.17938032542336    0.62409141719804    3.98573000951476
H         2.82784310976082    1.49832978178451    2.01330261386411
H         5.71629962569182    1.58679094783548    1.97156811220975
H         6.31061853309089   -0.27223504365156   -2.02708060840455
H         6.06526269588451    1.45043591953420   -2.37319888260576
H         3.98189846412551   -0.53912897937235   -2.12930221164231
H         3.98956678154896    1.06486401508780   -2.93332659410838
H         2.61724403714733    2.69931491759815   -1.97730252750595
H         4.00109605784740    3.11552763836512   -0.93341142988193
H         1.58909137170254    2.43250018413661    0.48078322387421
H         1.72900856679778    4.42304399998610    1.54559261952658
H         3.19854027344510    4.92072284307576    0.70939889958331
H         3.08197301342295    3.72363330947741    3.22246830632260
H         5.33598087191942    3.94057391798945    1.39806013593617
H         5.31610360545214    4.16526211562836    3.06397765155146
H         2.96571345490118   -0.44215147152195    0.45093653395918
H         1.08809243444692    0.52616299695479   -2.61773255016900
H         0.30275022050058    1.64686284602578   -1.66340475839054
H        -0.43734142804236    0.12113128134723   -1.79917573485430
H         1.30685796178915   -1.44055852460152    0.69368231220498
